# Note: Eclipse SUMO 1.19+ required separately (not pip-installable).
# Published results generated with sumolib 1.26.0 on SUMO 1.19.
xgboost==3.1.3
numpy==2.2.6
pandas==2.3.3
scikit-learn==1.8.0
scipy==1.16.3
streamlit==1.52.2
plotly==6.5.0
matplotlib==3.10.8
imbalanced-learn==0.14.1
sumolib==1.26.0
