<?xml version="1.0" encoding="UTF-8"?>
<routes>

    <vType id="sedan" length="4.5" width="1.8" maxSpeed="33.33" accel="2.6" decel="4.5" sigma="0.5" color="0,200,0"/>
    <vType id="suv" length="4.8" width="2.0" maxSpeed="30.56" accel="2.2" decel="4.0" sigma="0.5" color="0,200,0"/>
    <vType id="truck" length="12.0" width="2.5" maxSpeed="25.0" accel="1.0" decel="3.0" sigma="0.5" color="0,200,0"/>

    <!-- PHASE 1: Blind Spot Pairs (adjacent lanes, offset timing) -->
    <!-- PHASE 1: Extreme Blind Spot Density -->
    <route id="bsp_r0" edges="1084307347"/>
    <vehicle id="bsp_0" route="bsp_r0" type="suv" depart="0.0" departLane="0" departPos="30" departSpeed="12" maxSpeed="12"/>
    <vehicle id="bsp_1" route="bsp_r0" type="sedan" depart="0.0" departLane="1" departPos="0" departSpeed="28" maxSpeed="35"/>
    <route id="bsp_r2" edges="1084307347"/>
    <vehicle id="bsp_2" route="bsp_r2" type="sedan" depart="3.0" departLane="0" departPos="30" departSpeed="12" maxSpeed="12"/>
    <vehicle id="bsp_3" route="bsp_r2" type="sedan" depart="3.0" departLane="1" departPos="0" departSpeed="28" maxSpeed="35"/>
    <route id="bsp_r4" edges="1084307347"/>
    <vehicle id="bsp_4" route="bsp_r4" type="sedan" depart="6.0" departLane="0" departPos="30" departSpeed="12" maxSpeed="12"/>
    <vehicle id="bsp_5" route="bsp_r4" type="sedan" depart="6.0" departLane="1" departPos="0" departSpeed="28" maxSpeed="35"/>
    <route id="bsp_r6" edges="1084307347"/>
    <vehicle id="bsp_6" route="bsp_r6" type="suv" depart="9.0" departLane="0" departPos="30" departSpeed="12" maxSpeed="12"/>
    <vehicle id="bsp_7" route="bsp_r6" type="sedan" depart="9.0" departLane="1" departPos="0" departSpeed="28" maxSpeed="35"/>
    <route id="bsp_r8" edges="1084307347"/>
    <vehicle id="bsp_8" route="bsp_r8" type="sedan" depart="12.0" departLane="0" departPos="30" departSpeed="12" maxSpeed="12"/>
    <vehicle id="bsp_9" route="bsp_r8" type="sedan" depart="12.0" departLane="1" departPos="0" departSpeed="28" maxSpeed="35"/>
    <route id="bsp_r10" edges="1084307347"/>
    <vehicle id="bsp_10" route="bsp_r10" type="sedan" depart="15.0" departLane="0" departPos="30" departSpeed="12" maxSpeed="12"/>
    <vehicle id="bsp_11" route="bsp_r10" type="sedan" depart="15.0" departLane="1" departPos="0" departSpeed="28" maxSpeed="35"/>
    <route id="bsp_r12" edges="1084307347"/>
    <vehicle id="bsp_12" route="bsp_r12" type="suv" depart="18.0" departLane="0" departPos="30" departSpeed="12" maxSpeed="12"/>
    <vehicle id="bsp_13" route="bsp_r12" type="sedan" depart="18.0" departLane="1" departPos="0" departSpeed="28" maxSpeed="35"/>
    <route id="bsp_r14" edges="1084307347"/>
    <vehicle id="bsp_14" route="bsp_r14" type="sedan" depart="21.0" departLane="0" departPos="30" departSpeed="12" maxSpeed="12"/>
    <vehicle id="bsp_15" route="bsp_r14" type="sedan" depart="21.0" departLane="1" departPos="0" departSpeed="28" maxSpeed="35"/>
    <route id="bsp_r16" edges="1084307347"/>
    <vehicle id="bsp_16" route="bsp_r16" type="suv" depart="24.0" departLane="0" departPos="30" departSpeed="12" maxSpeed="12"/>
    <vehicle id="bsp_17" route="bsp_r16" type="sedan" depart="24.0" departLane="1" departPos="0" departSpeed="28" maxSpeed="35"/>
    <route id="bsp_r18" edges="1084307347"/>
    <vehicle id="bsp_18" route="bsp_r18" type="suv" depart="27.0" departLane="0" departPos="30" departSpeed="12" maxSpeed="12"/>
    <vehicle id="bsp_19" route="bsp_r18" type="sedan" depart="27.0" departLane="1" departPos="0" departSpeed="28" maxSpeed="35"/>
    <route id="bsp_r20" edges="1084307347"/>
    <vehicle id="bsp_20" route="bsp_r20" type="truck" depart="30.0" departLane="0" departPos="30" departSpeed="12" maxSpeed="12"/>
    <vehicle id="bsp_21" route="bsp_r20" type="sedan" depart="30.0" departLane="1" departPos="0" departSpeed="28" maxSpeed="35"/>
    <route id="bsp_r22" edges="1084307347"/>
    <vehicle id="bsp_22" route="bsp_r22" type="suv" depart="33.0" departLane="0" departPos="30" departSpeed="12" maxSpeed="12"/>
    <vehicle id="bsp_23" route="bsp_r22" type="sedan" depart="33.0" departLane="1" departPos="0" departSpeed="28" maxSpeed="35"/>
    <route id="bsp_r24" edges="1084307347"/>
    <vehicle id="bsp_24" route="bsp_r24" type="sedan" depart="36.0" departLane="0" departPos="30" departSpeed="12" maxSpeed="12"/>
    <vehicle id="bsp_25" route="bsp_r24" type="sedan" depart="36.0" departLane="1" departPos="0" departSpeed="28" maxSpeed="35"/>
    <route id="bsp_r26" edges="1084307347"/>
    <vehicle id="bsp_26" route="bsp_r26" type="truck" depart="39.0" departLane="0" departPos="30" departSpeed="12" maxSpeed="12"/>
    <vehicle id="bsp_27" route="bsp_r26" type="sedan" depart="39.0" departLane="1" departPos="0" departSpeed="28" maxSpeed="35"/>
    <route id="bsp_r28" edges="1084307347"/>
    <vehicle id="bsp_28" route="bsp_r28" type="suv" depart="42.0" departLane="0" departPos="30" departSpeed="12" maxSpeed="12"/>
    <vehicle id="bsp_29" route="bsp_r28" type="sedan" depart="42.0" departLane="1" departPos="0" departSpeed="28" maxSpeed="35"/>
    <route id="bsp_r30" edges="1084307347"/>
    <vehicle id="bsp_30" route="bsp_r30" type="truck" depart="45.0" departLane="0" departPos="30" departSpeed="12" maxSpeed="12"/>
    <vehicle id="bsp_31" route="bsp_r30" type="sedan" depart="45.0" departLane="1" departPos="0" departSpeed="28" maxSpeed="35"/>
    <route id="bsp_r32" edges="1084307347"/>
    <vehicle id="bsp_32" route="bsp_r32" type="sedan" depart="48.0" departLane="0" departPos="30" departSpeed="12" maxSpeed="12"/>
    <vehicle id="bsp_33" route="bsp_r32" type="sedan" depart="48.0" departLane="1" departPos="0" departSpeed="28" maxSpeed="35"/>
    <route id="bsp_r34" edges="1084307347"/>
    <vehicle id="bsp_34" route="bsp_r34" type="suv" depart="51.0" departLane="0" departPos="30" departSpeed="12" maxSpeed="12"/>
    <vehicle id="bsp_35" route="bsp_r34" type="sedan" depart="51.0" departLane="1" departPos="0" departSpeed="28" maxSpeed="35"/>
    <route id="bsp_r36" edges="1084307347"/>
    <vehicle id="bsp_36" route="bsp_r36" type="sedan" depart="54.0" departLane="0" departPos="30" departSpeed="12" maxSpeed="12"/>
    <vehicle id="bsp_37" route="bsp_r36" type="sedan" depart="54.0" departLane="1" departPos="0" departSpeed="28" maxSpeed="35"/>
    <route id="bsp_r38" edges="1084307347"/>
    <vehicle id="bsp_38" route="bsp_r38" type="truck" depart="57.0" departLane="0" departPos="30" departSpeed="12" maxSpeed="12"/>
    <vehicle id="bsp_39" route="bsp_r38" type="sedan" depart="57.0" departLane="1" departPos="0" departSpeed="28" maxSpeed="35"/>
    <route id="bsp_r40" edges="1084307347"/>
    <vehicle id="bsp_40" route="bsp_r40" type="suv" depart="60.0" departLane="0" departPos="30" departSpeed="12" maxSpeed="12"/>
    <vehicle id="bsp_41" route="bsp_r40" type="sedan" depart="60.0" departLane="1" departPos="0" departSpeed="28" maxSpeed="35"/>
    <route id="bsp_r42" edges="1084307347"/>
    <vehicle id="bsp_42" route="bsp_r42" type="truck" depart="63.0" departLane="0" departPos="30" departSpeed="12" maxSpeed="12"/>
    <vehicle id="bsp_43" route="bsp_r42" type="sedan" depart="63.0" departLane="1" departPos="0" departSpeed="28" maxSpeed="35"/>
    <route id="bsp_r44" edges="1084307347"/>
    <vehicle id="bsp_44" route="bsp_r44" type="truck" depart="66.0" departLane="0" departPos="30" departSpeed="12" maxSpeed="12"/>
    <vehicle id="bsp_45" route="bsp_r44" type="sedan" depart="66.0" departLane="1" departPos="0" departSpeed="28" maxSpeed="35"/>
    <route id="bsp_r46" edges="1084307347"/>
    <vehicle id="bsp_46" route="bsp_r46" type="suv" depart="69.0" departLane="0" departPos="30" departSpeed="12" maxSpeed="12"/>
    <vehicle id="bsp_47" route="bsp_r46" type="sedan" depart="69.0" departLane="1" departPos="0" departSpeed="28" maxSpeed="35"/>
    <route id="bsp_r48" edges="1084307347"/>
    <vehicle id="bsp_48" route="bsp_r48" type="truck" depart="72.0" departLane="0" departPos="30" departSpeed="12" maxSpeed="12"/>
    <vehicle id="bsp_49" route="bsp_r48" type="sedan" depart="72.0" departLane="1" departPos="0" departSpeed="28" maxSpeed="35"/>
    <route id="bsp_r50" edges="1084307347"/>
    <vehicle id="bsp_50" route="bsp_r50" type="sedan" depart="75.0" departLane="0" departPos="30" departSpeed="12" maxSpeed="12"/>
    <vehicle id="bsp_51" route="bsp_r50" type="sedan" depart="75.0" departLane="1" departPos="0" departSpeed="28" maxSpeed="35"/>
    <route id="bsp_r52" edges="1084307347"/>
    <vehicle id="bsp_52" route="bsp_r52" type="truck" depart="78.0" departLane="0" departPos="30" departSpeed="12" maxSpeed="12"/>
    <vehicle id="bsp_53" route="bsp_r52" type="sedan" depart="78.0" departLane="1" departPos="0" departSpeed="28" maxSpeed="35"/>
    <route id="bsp_r54" edges="1084307347"/>
    <vehicle id="bsp_54" route="bsp_r54" type="sedan" depart="81.0" departLane="0" departPos="30" departSpeed="12" maxSpeed="12"/>
    <vehicle id="bsp_55" route="bsp_r54" type="sedan" depart="81.0" departLane="1" departPos="0" departSpeed="28" maxSpeed="35"/>
    <route id="bsp_r56" edges="1084307347"/>
    <vehicle id="bsp_56" route="bsp_r56" type="sedan" depart="84.0" departLane="0" departPos="30" departSpeed="12" maxSpeed="12"/>
    <vehicle id="bsp_57" route="bsp_r56" type="sedan" depart="84.0" departLane="1" departPos="0" departSpeed="28" maxSpeed="35"/>
    <route id="bsp_r58" edges="1084307347"/>
    <vehicle id="bsp_58" route="bsp_r58" type="truck" depart="87.0" departLane="0" departPos="30" departSpeed="12" maxSpeed="12"/>
    <vehicle id="bsp_59" route="bsp_r58" type="sedan" depart="87.0" departLane="1" departPos="0" departSpeed="28" maxSpeed="35"/>
    <route id="bsp_r60" edges="1084307347"/>
    <vehicle id="bsp_60" route="bsp_r60" type="sedan" depart="90.0" departLane="0" departPos="30" departSpeed="12" maxSpeed="12"/>
    <vehicle id="bsp_61" route="bsp_r60" type="sedan" depart="90.0" departLane="1" departPos="0" departSpeed="28" maxSpeed="35"/>
    <route id="bsp_r62" edges="1084307347"/>
    <vehicle id="bsp_62" route="bsp_r62" type="suv" depart="93.0" departLane="0" departPos="30" departSpeed="12" maxSpeed="12"/>
    <vehicle id="bsp_63" route="bsp_r62" type="sedan" depart="93.0" departLane="1" departPos="0" departSpeed="28" maxSpeed="35"/>
    <route id="bsp_r64" edges="1084307347"/>
    <vehicle id="bsp_64" route="bsp_r64" type="sedan" depart="96.0" departLane="0" departPos="30" departSpeed="12" maxSpeed="12"/>
    <vehicle id="bsp_65" route="bsp_r64" type="sedan" depart="96.0" departLane="1" departPos="0" departSpeed="28" maxSpeed="35"/>
    <route id="bsp_r66" edges="1084307347"/>
    <vehicle id="bsp_66" route="bsp_r66" type="sedan" depart="99.0" departLane="0" departPos="30" departSpeed="12" maxSpeed="12"/>
    <vehicle id="bsp_67" route="bsp_r66" type="sedan" depart="99.0" departLane="1" departPos="0" departSpeed="28" maxSpeed="35"/>
    <route id="bsp_r68" edges="1084307347"/>
    <vehicle id="bsp_68" route="bsp_r68" type="sedan" depart="102.0" departLane="0" departPos="30" departSpeed="12" maxSpeed="12"/>
    <vehicle id="bsp_69" route="bsp_r68" type="sedan" depart="102.0" departLane="1" departPos="0" departSpeed="28" maxSpeed="35"/>
    <route id="bsp_r70" edges="1084307347"/>
    <vehicle id="bsp_70" route="bsp_r70" type="suv" depart="105.0" departLane="0" departPos="30" departSpeed="12" maxSpeed="12"/>
    <vehicle id="bsp_71" route="bsp_r70" type="sedan" depart="105.0" departLane="1" departPos="0" departSpeed="28" maxSpeed="35"/>
    <route id="bsp_r72" edges="1084307347"/>
    <vehicle id="bsp_72" route="bsp_r72" type="suv" depart="108.0" departLane="0" departPos="30" departSpeed="12" maxSpeed="12"/>
    <vehicle id="bsp_73" route="bsp_r72" type="sedan" depart="108.0" departLane="1" departPos="0" departSpeed="28" maxSpeed="35"/>
    <route id="bsp_r74" edges="1084307347"/>
    <vehicle id="bsp_74" route="bsp_r74" type="suv" depart="111.0" departLane="0" departPos="30" departSpeed="12" maxSpeed="12"/>
    <vehicle id="bsp_75" route="bsp_r74" type="sedan" depart="111.0" departLane="1" departPos="0" departSpeed="28" maxSpeed="35"/>
    <route id="bsp_r76" edges="1084307347"/>
    <vehicle id="bsp_76" route="bsp_r76" type="truck" depart="114.0" departLane="0" departPos="30" departSpeed="12" maxSpeed="12"/>
    <vehicle id="bsp_77" route="bsp_r76" type="sedan" depart="114.0" departLane="1" departPos="0" departSpeed="28" maxSpeed="35"/>
    <route id="bsp_r78" edges="1084307347"/>
    <vehicle id="bsp_78" route="bsp_r78" type="suv" depart="117.0" departLane="0" departPos="30" departSpeed="12" maxSpeed="12"/>
    <vehicle id="bsp_79" route="bsp_r78" type="sedan" depart="117.0" departLane="1" departPos="0" departSpeed="28" maxSpeed="35"/>
    <route id="bsp_r80" edges="1084307347"/>
    <vehicle id="bsp_80" route="bsp_r80" type="sedan" depart="120.0" departLane="0" departPos="30" departSpeed="12" maxSpeed="12"/>
    <vehicle id="bsp_81" route="bsp_r80" type="sedan" depart="120.0" departLane="1" departPos="0" departSpeed="28" maxSpeed="35"/>
    <route id="bsp_r82" edges="1084307347"/>
    <vehicle id="bsp_82" route="bsp_r82" type="suv" depart="123.0" departLane="0" departPos="30" departSpeed="12" maxSpeed="12"/>
    <vehicle id="bsp_83" route="bsp_r82" type="sedan" depart="123.0" departLane="1" departPos="0" departSpeed="28" maxSpeed="35"/>
    <route id="bsp_r84" edges="1084307347"/>
    <vehicle id="bsp_84" route="bsp_r84" type="suv" depart="126.0" departLane="0" departPos="30" departSpeed="12" maxSpeed="12"/>
    <vehicle id="bsp_85" route="bsp_r84" type="sedan" depart="126.0" departLane="1" departPos="0" departSpeed="28" maxSpeed="35"/>
    <route id="bsp_r86" edges="1084307347"/>
    <vehicle id="bsp_86" route="bsp_r86" type="sedan" depart="129.0" departLane="0" departPos="30" departSpeed="12" maxSpeed="12"/>
    <vehicle id="bsp_87" route="bsp_r86" type="sedan" depart="129.0" departLane="1" departPos="0" departSpeed="28" maxSpeed="35"/>
    <route id="bsp_r88" edges="1084307347"/>
    <vehicle id="bsp_88" route="bsp_r88" type="truck" depart="132.0" departLane="0" departPos="30" departSpeed="12" maxSpeed="12"/>
    <vehicle id="bsp_89" route="bsp_r88" type="sedan" depart="132.0" departLane="1" departPos="0" departSpeed="28" maxSpeed="35"/>
    <route id="bsp_r90" edges="1084307347"/>
    <vehicle id="bsp_90" route="bsp_r90" type="suv" depart="135.0" departLane="0" departPos="30" departSpeed="12" maxSpeed="12"/>
    <vehicle id="bsp_91" route="bsp_r90" type="sedan" depart="135.0" departLane="1" departPos="0" departSpeed="28" maxSpeed="35"/>
    <route id="bsp_r92" edges="1084307347"/>
    <vehicle id="bsp_92" route="bsp_r92" type="truck" depart="138.0" departLane="0" departPos="30" departSpeed="12" maxSpeed="12"/>
    <vehicle id="bsp_93" route="bsp_r92" type="sedan" depart="138.0" departLane="1" departPos="0" departSpeed="28" maxSpeed="35"/>
    <route id="bsp_r94" edges="1084307347"/>
    <vehicle id="bsp_94" route="bsp_r94" type="truck" depart="141.0" departLane="0" departPos="30" departSpeed="12" maxSpeed="12"/>
    <vehicle id="bsp_95" route="bsp_r94" type="sedan" depart="141.0" departLane="1" departPos="0" departSpeed="28" maxSpeed="35"/>
    <route id="bsp_r96" edges="1084307347"/>
    <vehicle id="bsp_96" route="bsp_r96" type="truck" depart="144.0" departLane="0" departPos="30" departSpeed="12" maxSpeed="12"/>
    <vehicle id="bsp_97" route="bsp_r96" type="sedan" depart="144.0" departLane="1" departPos="0" departSpeed="28" maxSpeed="35"/>
    <route id="bsp_r98" edges="1084307347"/>
    <vehicle id="bsp_98" route="bsp_r98" type="sedan" depart="147.0" departLane="0" departPos="30" departSpeed="12" maxSpeed="12"/>
    <vehicle id="bsp_99" route="bsp_r98" type="sedan" depart="147.0" departLane="1" departPos="0" departSpeed="28" maxSpeed="35"/>
    <route id="bsp_r100" edges="1084307347"/>
    <vehicle id="bsp_100" route="bsp_r100" type="truck" depart="150.0" departLane="0" departPos="30" departSpeed="12" maxSpeed="12"/>
    <vehicle id="bsp_101" route="bsp_r100" type="sedan" depart="150.0" departLane="1" departPos="0" departSpeed="28" maxSpeed="35"/>
    <route id="bsp_r102" edges="1084307347"/>
    <vehicle id="bsp_102" route="bsp_r102" type="truck" depart="153.0" departLane="0" departPos="30" departSpeed="12" maxSpeed="12"/>
    <vehicle id="bsp_103" route="bsp_r102" type="sedan" depart="153.0" departLane="1" departPos="0" departSpeed="28" maxSpeed="35"/>
    <route id="bsp_r104" edges="1084307347"/>
    <vehicle id="bsp_104" route="bsp_r104" type="sedan" depart="156.0" departLane="0" departPos="30" departSpeed="12" maxSpeed="12"/>
    <vehicle id="bsp_105" route="bsp_r104" type="sedan" depart="156.0" departLane="1" departPos="0" departSpeed="28" maxSpeed="35"/>
    <route id="bsp_r106" edges="1084307347"/>
    <vehicle id="bsp_106" route="bsp_r106" type="truck" depart="159.0" departLane="0" departPos="30" departSpeed="12" maxSpeed="12"/>
    <vehicle id="bsp_107" route="bsp_r106" type="sedan" depart="159.0" departLane="1" departPos="0" departSpeed="28" maxSpeed="35"/>
    <route id="bsp_r108" edges="1084307347"/>
    <vehicle id="bsp_108" route="bsp_r108" type="truck" depart="162.0" departLane="0" departPos="30" departSpeed="12" maxSpeed="12"/>
    <vehicle id="bsp_109" route="bsp_r108" type="sedan" depart="162.0" departLane="1" departPos="0" departSpeed="28" maxSpeed="35"/>
    <route id="bsp_r110" edges="1084307347"/>
    <vehicle id="bsp_110" route="bsp_r110" type="sedan" depart="165.0" departLane="0" departPos="30" departSpeed="12" maxSpeed="12"/>
    <vehicle id="bsp_111" route="bsp_r110" type="sedan" depart="165.0" departLane="1" departPos="0" departSpeed="28" maxSpeed="35"/>
    <route id="bsp_r112" edges="1084307347"/>
    <vehicle id="bsp_112" route="bsp_r112" type="sedan" depart="168.0" departLane="0" departPos="30" departSpeed="12" maxSpeed="12"/>
    <vehicle id="bsp_113" route="bsp_r112" type="sedan" depart="168.0" departLane="1" departPos="0" departSpeed="28" maxSpeed="35"/>
    <route id="bsp_r114" edges="1084307347"/>
    <vehicle id="bsp_114" route="bsp_r114" type="suv" depart="171.0" departLane="0" departPos="30" departSpeed="12" maxSpeed="12"/>
    <vehicle id="bsp_115" route="bsp_r114" type="sedan" depart="171.0" departLane="1" departPos="0" departSpeed="28" maxSpeed="35"/>
    <route id="bsp_r116" edges="1084307347"/>
    <vehicle id="bsp_116" route="bsp_r116" type="suv" depart="174.0" departLane="0" departPos="30" departSpeed="12" maxSpeed="12"/>
    <vehicle id="bsp_117" route="bsp_r116" type="sedan" depart="174.0" departLane="1" departPos="0" departSpeed="28" maxSpeed="35"/>
    <route id="bsp_r118" edges="1084307347"/>
    <vehicle id="bsp_118" route="bsp_r118" type="suv" depart="177.0" departLane="0" departPos="30" departSpeed="12" maxSpeed="12"/>
    <vehicle id="bsp_119" route="bsp_r118" type="sedan" depart="177.0" departLane="1" departPos="0" departSpeed="28" maxSpeed="35"/>
    <route id="bsp_r120" edges="1084307347"/>
    <vehicle id="bsp_120" route="bsp_r120" type="truck" depart="180.0" departLane="0" departPos="30" departSpeed="12" maxSpeed="12"/>
    <vehicle id="bsp_121" route="bsp_r120" type="sedan" depart="180.0" departLane="1" departPos="0" departSpeed="28" maxSpeed="35"/>
    <route id="bsp_r122" edges="1084307347"/>
    <vehicle id="bsp_122" route="bsp_r122" type="truck" depart="183.0" departLane="0" departPos="30" departSpeed="12" maxSpeed="12"/>
    <vehicle id="bsp_123" route="bsp_r122" type="sedan" depart="183.0" departLane="1" departPos="0" departSpeed="28" maxSpeed="35"/>
    <route id="bsp_r124" edges="1084307347"/>
    <vehicle id="bsp_124" route="bsp_r124" type="truck" depart="186.0" departLane="0" departPos="30" departSpeed="12" maxSpeed="12"/>
    <vehicle id="bsp_125" route="bsp_r124" type="sedan" depart="186.0" departLane="1" departPos="0" departSpeed="28" maxSpeed="35"/>
    <route id="bsp_r126" edges="1084307347"/>
    <vehicle id="bsp_126" route="bsp_r126" type="sedan" depart="189.0" departLane="0" departPos="30" departSpeed="12" maxSpeed="12"/>
    <vehicle id="bsp_127" route="bsp_r126" type="sedan" depart="189.0" departLane="1" departPos="0" departSpeed="28" maxSpeed="35"/>
    <route id="bsp_r128" edges="1084307347"/>
    <vehicle id="bsp_128" route="bsp_r128" type="truck" depart="192.0" departLane="0" departPos="30" departSpeed="12" maxSpeed="12"/>
    <vehicle id="bsp_129" route="bsp_r128" type="sedan" depart="192.0" departLane="1" departPos="0" departSpeed="28" maxSpeed="35"/>
    <route id="bsp_r130" edges="1084307347"/>
    <vehicle id="bsp_130" route="bsp_r130" type="suv" depart="195.0" departLane="0" departPos="30" departSpeed="12" maxSpeed="12"/>
    <vehicle id="bsp_131" route="bsp_r130" type="sedan" depart="195.0" departLane="1" departPos="0" departSpeed="28" maxSpeed="35"/>
    <route id="bsp_r132" edges="1084307347"/>
    <vehicle id="bsp_132" route="bsp_r132" type="sedan" depart="198.0" departLane="0" departPos="30" departSpeed="12" maxSpeed="12"/>
    <vehicle id="bsp_133" route="bsp_r132" type="sedan" depart="198.0" departLane="1" departPos="0" departSpeed="28" maxSpeed="35"/>
    <route id="bsp_r134" edges="1084307347"/>
    <vehicle id="bsp_134" route="bsp_r134" type="sedan" depart="201.0" departLane="0" departPos="30" departSpeed="12" maxSpeed="12"/>
    <vehicle id="bsp_135" route="bsp_r134" type="sedan" depart="201.0" departLane="1" departPos="0" departSpeed="28" maxSpeed="35"/>
    <route id="bsp_r136" edges="1084307347"/>
    <vehicle id="bsp_136" route="bsp_r136" type="sedan" depart="204.0" departLane="0" departPos="30" departSpeed="12" maxSpeed="12"/>
    <vehicle id="bsp_137" route="bsp_r136" type="sedan" depart="204.0" departLane="1" departPos="0" departSpeed="28" maxSpeed="35"/>
    <route id="bsp_r138" edges="1084307347"/>
    <vehicle id="bsp_138" route="bsp_r138" type="suv" depart="207.0" departLane="0" departPos="30" departSpeed="12" maxSpeed="12"/>
    <vehicle id="bsp_139" route="bsp_r138" type="sedan" depart="207.0" departLane="1" departPos="0" departSpeed="28" maxSpeed="35"/>
    <route id="bsp_r140" edges="1084307347"/>
    <vehicle id="bsp_140" route="bsp_r140" type="suv" depart="210.0" departLane="0" departPos="30" departSpeed="12" maxSpeed="12"/>
    <vehicle id="bsp_141" route="bsp_r140" type="sedan" depart="210.0" departLane="1" departPos="0" departSpeed="28" maxSpeed="35"/>
    <route id="bsp_r142" edges="1084307347"/>
    <vehicle id="bsp_142" route="bsp_r142" type="suv" depart="213.0" departLane="0" departPos="30" departSpeed="12" maxSpeed="12"/>
    <vehicle id="bsp_143" route="bsp_r142" type="sedan" depart="213.0" departLane="1" departPos="0" departSpeed="28" maxSpeed="35"/>
    <route id="bsp_r144" edges="1084307347"/>
    <vehicle id="bsp_144" route="bsp_r144" type="sedan" depart="216.0" departLane="0" departPos="30" departSpeed="12" maxSpeed="12"/>
    <vehicle id="bsp_145" route="bsp_r144" type="sedan" depart="216.0" departLane="1" departPos="0" departSpeed="28" maxSpeed="35"/>
    <route id="bsp_r146" edges="1084307347"/>
    <vehicle id="bsp_146" route="bsp_r146" type="sedan" depart="219.0" departLane="0" departPos="30" departSpeed="12" maxSpeed="12"/>
    <vehicle id="bsp_147" route="bsp_r146" type="sedan" depart="219.0" departLane="1" departPos="0" departSpeed="28" maxSpeed="35"/>
    <route id="bsp_r148" edges="1084307347"/>
    <vehicle id="bsp_148" route="bsp_r148" type="truck" depart="222.0" departLane="0" departPos="30" departSpeed="12" maxSpeed="12"/>
    <vehicle id="bsp_149" route="bsp_r148" type="sedan" depart="222.0" departLane="1" departPos="0" departSpeed="28" maxSpeed="35"/>
    <route id="bsp_r150" edges="1084307347"/>
    <vehicle id="bsp_150" route="bsp_r150" type="truck" depart="225.0" departLane="0" departPos="30" departSpeed="12" maxSpeed="12"/>
    <vehicle id="bsp_151" route="bsp_r150" type="sedan" depart="225.0" departLane="1" departPos="0" departSpeed="28" maxSpeed="35"/>
    <route id="bsp_r152" edges="1084307347"/>
    <vehicle id="bsp_152" route="bsp_r152" type="suv" depart="228.0" departLane="0" departPos="30" departSpeed="12" maxSpeed="12"/>
    <vehicle id="bsp_153" route="bsp_r152" type="sedan" depart="228.0" departLane="1" departPos="0" departSpeed="28" maxSpeed="35"/>
    <route id="bsp_r154" edges="1084307347"/>
    <vehicle id="bsp_154" route="bsp_r154" type="sedan" depart="231.0" departLane="0" departPos="30" departSpeed="12" maxSpeed="12"/>
    <vehicle id="bsp_155" route="bsp_r154" type="sedan" depart="231.0" departLane="1" departPos="0" departSpeed="28" maxSpeed="35"/>
    <route id="bsp_r156" edges="1084307347"/>
    <vehicle id="bsp_156" route="bsp_r156" type="truck" depart="234.0" departLane="0" departPos="30" departSpeed="12" maxSpeed="12"/>
    <vehicle id="bsp_157" route="bsp_r156" type="sedan" depart="234.0" departLane="1" departPos="0" departSpeed="28" maxSpeed="35"/>
    <route id="bsp_r158" edges="1084307347"/>
    <vehicle id="bsp_158" route="bsp_r158" type="suv" depart="237.0" departLane="0" departPos="30" departSpeed="12" maxSpeed="12"/>
    <vehicle id="bsp_159" route="bsp_r158" type="sedan" depart="237.0" departLane="1" departPos="0" departSpeed="28" maxSpeed="35"/>
    <route id="bsp_r160" edges="1084307347"/>
    <vehicle id="bsp_160" route="bsp_r160" type="suv" depart="240.0" departLane="0" departPos="30" departSpeed="12" maxSpeed="12"/>
    <vehicle id="bsp_161" route="bsp_r160" type="sedan" depart="240.0" departLane="1" departPos="0" departSpeed="28" maxSpeed="35"/>
    <route id="bsp_r162" edges="1084307347"/>
    <vehicle id="bsp_162" route="bsp_r162" type="truck" depart="243.0" departLane="0" departPos="30" departSpeed="12" maxSpeed="12"/>
    <vehicle id="bsp_163" route="bsp_r162" type="sedan" depart="243.0" departLane="1" departPos="0" departSpeed="28" maxSpeed="35"/>
    <route id="bsp_r164" edges="1084307347"/>
    <vehicle id="bsp_164" route="bsp_r164" type="suv" depart="246.0" departLane="0" departPos="30" departSpeed="12" maxSpeed="12"/>
    <vehicle id="bsp_165" route="bsp_r164" type="sedan" depart="246.0" departLane="1" departPos="0" departSpeed="28" maxSpeed="35"/>
    <route id="bsp_r166" edges="1084307347"/>
    <vehicle id="bsp_166" route="bsp_r166" type="sedan" depart="249.0" departLane="0" departPos="30" departSpeed="12" maxSpeed="12"/>
    <vehicle id="bsp_167" route="bsp_r166" type="sedan" depart="249.0" departLane="1" departPos="0" departSpeed="28" maxSpeed="35"/>
    <route id="bsp_r168" edges="1084307347"/>
    <vehicle id="bsp_168" route="bsp_r168" type="suv" depart="252.0" departLane="0" departPos="30" departSpeed="12" maxSpeed="12"/>
    <vehicle id="bsp_169" route="bsp_r168" type="sedan" depart="252.0" departLane="1" departPos="0" departSpeed="28" maxSpeed="35"/>
    <route id="bsp_r170" edges="1084307347"/>
    <vehicle id="bsp_170" route="bsp_r170" type="sedan" depart="255.0" departLane="0" departPos="30" departSpeed="12" maxSpeed="12"/>
    <vehicle id="bsp_171" route="bsp_r170" type="sedan" depart="255.0" departLane="1" departPos="0" departSpeed="28" maxSpeed="35"/>
    <route id="bsp_r172" edges="1084307347"/>
    <vehicle id="bsp_172" route="bsp_r172" type="sedan" depart="258.0" departLane="0" departPos="30" departSpeed="12" maxSpeed="12"/>
    <vehicle id="bsp_173" route="bsp_r172" type="sedan" depart="258.0" departLane="1" departPos="0" departSpeed="28" maxSpeed="35"/>
    <route id="bsp_r174" edges="1084307347"/>
    <vehicle id="bsp_174" route="bsp_r174" type="truck" depart="261.0" departLane="0" departPos="30" departSpeed="12" maxSpeed="12"/>
    <vehicle id="bsp_175" route="bsp_r174" type="sedan" depart="261.0" departLane="1" departPos="0" departSpeed="28" maxSpeed="35"/>
    <route id="bsp_r176" edges="1084307347"/>
    <vehicle id="bsp_176" route="bsp_r176" type="truck" depart="264.0" departLane="0" departPos="30" departSpeed="12" maxSpeed="12"/>
    <vehicle id="bsp_177" route="bsp_r176" type="sedan" depart="264.0" departLane="1" departPos="0" departSpeed="28" maxSpeed="35"/>
    <route id="bsp_r178" edges="1084307347"/>
    <vehicle id="bsp_178" route="bsp_r178" type="truck" depart="267.0" departLane="0" departPos="30" departSpeed="12" maxSpeed="12"/>
    <vehicle id="bsp_179" route="bsp_r178" type="sedan" depart="267.0" departLane="1" departPos="0" departSpeed="28" maxSpeed="35"/>
    <route id="bsp_r180" edges="1084307347"/>
    <vehicle id="bsp_180" route="bsp_r180" type="suv" depart="270.0" departLane="0" departPos="30" departSpeed="12" maxSpeed="12"/>
    <vehicle id="bsp_181" route="bsp_r180" type="sedan" depart="270.0" departLane="1" departPos="0" departSpeed="28" maxSpeed="35"/>
    <route id="bsp_r182" edges="1084307347"/>
    <vehicle id="bsp_182" route="bsp_r182" type="truck" depart="273.0" departLane="0" departPos="30" departSpeed="12" maxSpeed="12"/>
    <vehicle id="bsp_183" route="bsp_r182" type="sedan" depart="273.0" departLane="1" departPos="0" departSpeed="28" maxSpeed="35"/>
    <route id="bsp_r184" edges="1084307347"/>
    <vehicle id="bsp_184" route="bsp_r184" type="truck" depart="276.0" departLane="0" departPos="30" departSpeed="12" maxSpeed="12"/>
    <vehicle id="bsp_185" route="bsp_r184" type="sedan" depart="276.0" departLane="1" departPos="0" departSpeed="28" maxSpeed="35"/>
    <route id="bsp_r186" edges="1084307347"/>
    <vehicle id="bsp_186" route="bsp_r186" type="suv" depart="279.0" departLane="0" departPos="30" departSpeed="12" maxSpeed="12"/>
    <vehicle id="bsp_187" route="bsp_r186" type="sedan" depart="279.0" departLane="1" departPos="0" departSpeed="28" maxSpeed="35"/>
    <route id="bsp_r188" edges="1084307347"/>
    <vehicle id="bsp_188" route="bsp_r188" type="truck" depart="282.0" departLane="0" departPos="30" departSpeed="12" maxSpeed="12"/>
    <vehicle id="bsp_189" route="bsp_r188" type="sedan" depart="282.0" departLane="1" departPos="0" departSpeed="28" maxSpeed="35"/>
    <route id="bsp_r190" edges="1084307347"/>