<?xml version="1.0" encoding="UTF-8"?>

<!-- generated on 2025-09-26 22:52:05 by Eclipse SUMO netconvert Version 1.24.0
<netconvertConfiguration xmlns:xsi="http://www.w3.org/2001/XMLSchema-instance" xsi:noNamespaceSchemaLocation="http://sumo.dlr.de/xsd/netconvertConfiguration.xsd">

    <input>
        <osm-files value="atal.osm"/>
    </input>

    <output>
        <output-file value="mumbai_network.net.xml"/>
    </output>

    <projection>
        <proj.utm value="true"/>
    </projection>

    <processing>
        <geometry.remove value="true"/>
    </processing>

    <tls_building>
        <tls.discard-simple value="true"/>
        <tls.join value="true"/>
        <tls.guess-signals value="true"/>
        <tls.default-type value="actuated"/>
    </tls_building>

    <ramp_guessing>
        <ramps.guess value="true"/>
    </ramp_guessing>

    <junctions>
        <junctions.join value="true"/>
    </junctions>

</netconvertConfiguration>
-->

<net version="1.20" junctionCornerDetail="5" limitTurnSpeed="5.50" xmlns:xsi="http://www.w3.org/2001/XMLSchema-instance" xsi:noNamespaceSchemaLocation="http://sumo.dlr.de/xsd/net_file.xsd">

    <location netOffset="-272882.45,-2099626.40" convBoundary="0.00,0.00,3958.79,5550.70" origBoundary="72.819569,18.922715,72.879792,19.044105" projParameter="+proj=utm +zone=43 +ellps=WGS84 +datum=WGS84 +units=m +no_defs"/>

    <type id="highway.footway" priority="1" numLanes="1" speed="2.78" allow="pedestrian" oneway="1" width="2.00"/>
    <type id="highway.living_street" priority="2" numLanes="1" speed="2.78" disallow="tram rail_urban rail rail_electric rail_fast ship container cable_car subway aircraft wheelchair scooter drone" oneway="0"/>
    <type id="highway.motorway" priority="14" numLanes="2" speed="39.44" allow="private emergency authority army vip passenger hov taxi bus coach delivery truck trailer motorcycle evehicle custom1 custom2" oneway="1"/>
    <type id="highway.motorway_link" priority="9" numLanes="1" speed="22.22" allow="private emergency authority army vip passenger hov taxi bus coach delivery truck trailer motorcycle evehicle custom1 custom2" oneway="1"/>
    <type id="highway.pedestrian" priority="1" numLanes="1" speed="2.78" allow="pedestrian" oneway="1" width="2.00"/>
    <type id="highway.primary" priority="12" numLanes="2" speed="27.78" disallow="tram rail_urban rail rail_electric rail_fast ship container cable_car subway aircraft wheelchair scooter drone" oneway="0"/>
    <type id="highway.residential" priority="3" numLanes="1" speed="13.89" disallow="tram rail_urban rail rail_electric rail_fast ship container cable_car subway aircraft wheelchair scooter drone" oneway="0"/>
    <type id="highway.service" priority="1" numLanes="1" speed="5.56" allow="pedestrian delivery bicycle" oneway="0"/>
    <type id="highway.steps" priority="1" numLanes="1" speed="1.39" allow="pedestrian" oneway="1" width="2.00"/>
    <type id="highway.tertiary" priority="10" numLanes="1" speed="22.22" disallow="tram rail_urban rail rail_electric rail_fast ship container cable_car subway aircraft wheelchair scooter drone" oneway="0"/>
    <type id="highway.tertiary_link" priority="5" numLanes="1" speed="22.22" disallow="tram rail_urban rail rail_electric rail_fast ship container cable_car subway aircraft wheelchair scooter drone" oneway="0"/>
    <type id="highway.track" priority="1" numLanes="1" speed="5.56" allow="pedestrian motorcycle moped bicycle" oneway="0"/>
    <type id="highway.unclassified" priority="4" numLanes="1" speed="13.89" disallow="tram rail_urban rail rail_electric rail_fast ship container cable_car subway aircraft wheelchair scooter drone" oneway="0"/>
    <type id="railway.rail" priority="20" numLanes="1" speed="44.44" allow="rail" oneway="1"/>

    <edge id=":10129412727_0" function="internal">
        <lane id=":10129412727_0_0" index="0" disallow="tram rail_urban rail rail_electric rail_fast ship container cable_car subway aircraft wheelchair scooter drone" speed="6.11" length="9.06" shape="787.29,1851.96 784.91,1852.91 783.58,1854.36 783.29,1856.31 784.04,1858.76"/>
    </edge>
    <edge id=":10129412727_1" function="internal">
        <lane id=":10129412727_1_0" index="0" disallow="tram rail_urban rail rail_electric rail_fast ship container cable_car subway aircraft wheelchair scooter drone" speed="3.65" length="1.44" shape="787.29,1851.96 785.93,1851.47"/>
    </edge>
    <edge id=":10129412727_4" function="internal">
        <lane id=":10129412727_4_0" index="0" disallow="tram rail_urban rail rail_electric rail_fast ship container cable_car subway aircraft wheelchair scooter drone" speed="3.65" length="3.23" shape="785.93,1851.47 785.36,1850.78 785.56,1849.91 786.54,1848.85"/>
    </edge>
    <edge id=":10129412727_2" function="internal">
        <lane id=":10129412727_2_0" index="0" disallow="tram rail_urban rail rail_electric rail_fast ship container cable_car subway aircraft wheelchair scooter drone" speed="7.61" length="10.29" shape="777.56,1845.80 779.04,1847.73 781.03,1848.88 783.53,1849.25 786.54,1848.85"/>
    </edge>
    <edge id=":10129412727_3" function="internal">
        <lane id=":10129412727_3_0" index="0" disallow="tram rail_urban rail rail_electric rail_fast ship container cable_car subway aircraft wheelchair scooter drone" speed="13.89" length="14.49" shape="777.56,1845.80 784.04,1858.76"/>
    </edge>
    <edge id=":10129412728_0" function="internal">
        <lane id=":10129412728_0_0" index="0" disallow="tram rail_urban rail rail_electric rail_fast ship container cable_car subway aircraft wheelchair scooter drone" speed="6.45" length="9.03" shape="821.49,1849.51 820.63,1847.18 819.23,1845.70 817.30,1845.08 814.82,1845.32"/>
    </edge>
    <edge id=":10129412728_1" function="internal">
        <lane id=":10129412728_1_0" index="0" disallow="tram rail_urban rail rail_electric rail_fast ship container cable_car subway aircraft wheelchair scooter drone" speed="13.89" length="14.44" shape="821.49,1849.51 818.29,1835.43"/>
    </edge>
    <edge id=":10129412728_2" function="internal">
        <lane id=":10129412728_2_0" index="0" disallow="tram rail_urban rail rail_electric rail_fast ship container cable_car subway aircraft wheelchair scooter drone" speed="6.53" length="9.10" shape="814.07,1842.21 816.41,1841.28 817.89,1839.85 818.52,1837.89 818.29,1835.43"/>
    </edge>
    <edge id=":10129412728_3" function="internal">
        <lane id=":10129412728_3_0" index="0" disallow="tram rail_urban rail rail_electric rail_fast ship container cable_car subway aircraft wheelchair scooter drone" speed="3.65" length="1.44" shape="814.07,1842.21 815.43,1842.70"/>
    </edge>
    <edge id=":10129412728_4" function="internal">
        <lane id=":10129412728_4_0" index="0" disallow="tram rail_urban rail rail_electric rail_fast ship container cable_car subway aircraft wheelchair scooter drone" speed="3.65" length="3.23" shape="815.43,1842.70 816.00,1843.39 815.80,1844.26 814.82,1845.32"/>
    </edge>
    <edge id=":10129412740_0" function="internal">
        <lane id=":10129412740_0_0" index="0" disallow="tram rail_urban rail rail_electric rail_fast ship container cable_car subway aircraft wheelchair scooter drone" speed="6.53" length="8.61" shape="816.04,1826.11 815.18,1823.91 813.84,1822.46 812.01,1821.76 809.69,1821.82"/>
    </edge>
    <edge id=":10129412740_1" function="internal">
        <lane id=":10129412740_1_0" index="0" disallow="tram rail_urban rail rail_electric rail_fast ship container cable_car subway aircraft wheelchair scooter drone" speed="7.12" length="11.18" shape="816.04,1826.11 815.50,1822.42 815.84,1819.62 817.08,1817.72 819.21,1816.70"/>
    </edge>
    <edge id=":10129412740_2" function="internal">
        <lane id=":10129412740_2_0" index="0" disallow="tram rail_urban rail rail_electric rail_fast ship container cable_car subway aircraft wheelchair scooter drone" speed="13.89" length="10.39" shape="819.90,1819.83 809.69,1821.82"/>
    </edge>
    <edge id=":10129412740_3" function="internal">
        <lane id=":10129412740_3_0" index="0" disallow="tram rail_urban rail rail_electric rail_fast ship container cable_car subway aircraft wheelchair scooter drone" speed="3.65" length="1.44" shape="819.90,1819.83 818.55,1819.30"/>
    </edge>
    <edge id=":10129412740_6" function="internal">
        <lane id=":10129412740_6_0" index="0" disallow="tram rail_urban rail rail_electric rail_fast ship container cable_car subway aircraft wheelchair scooter drone" speed="3.65" length="3.23" shape="818.55,1819.30 817.99,1818.61 818.21,1817.74 819.21,1816.70"/>
    </edge>
    <edge id=":10129412740_4" function="internal">
        <lane id=":10129412740_4_0" index="0" disallow="tram rail_urban rail rail_electric rail_fast ship container cable_car subway aircraft wheelchair scooter drone" speed="13.89" length="10.23" shape="809.16,1818.66 819.21,1816.70"/>
    </edge>
    <edge id=":10129412740_5" function="internal">
        <lane id=":10129412740_5_0" index="0" disallow="tram rail_urban rail rail_electric rail_fast ship container cable_car subway aircraft wheelchair scooter drone" speed="3.65" length="1.44" shape="809.16,1818.66 810.48,1819.25"/>
    </edge>
    <edge id=":10129412740_7" function="internal">
        <lane id=":10129412740_7_0" index="0" disallow="tram rail_urban rail rail_electric rail_fast ship container cable_car subway aircraft wheelchair scooter drone" speed="3.65" length="3.23" shape="810.48,1819.25 811.01,1819.98 810.75,1820.83 809.69,1821.82"/>
    </edge>
    <edge id=":10244200813_0" function="internal">
        <lane id=":10244200813_0_0" index="0" disallow="tram rail_urban rail rail_electric rail_fast ship container cable_car subway aircraft wheelchair scooter drone" speed="3.65" length="4.67" shape="776.18,2870.77 777.44,2871.47 777.90,2872.24 777.56,2873.07 776.42,2873.96"/>
    </edge>
    <edge id=":10259202067_0" function="internal">
        <lane id=":10259202067_0_0" index="0" disallow="tram rail_urban rail rail_electric rail_fast ship container cable_car subway aircraft wheelchair scooter drone" speed="3.65" length="4.67" shape="1348.31,2096.56 1347.14,2097.39 1346.25,2097.48 1345.64,2096.82 1345.32,2095.41"/>
    </edge>
    <edge id=":10277780854_0" function="internal">
        <lane id=":10277780854_0_0" index="0" disallow="tram rail_urban rail rail_electric rail_fast ship container cable_car subway aircraft wheelchair scooter drone" speed="22.22" length="13.59" shape="1394.47,2663.67 1391.13,2650.50"/>
    </edge>
    <edge id=":10277780854_1" function="internal">
        <lane id=":10277780854_1_0" index="0" disallow="tram rail_urban rail rail_electric rail_fast ship container cable_car subway aircraft wheelchair scooter drone" speed="5.48" length="3.95" shape="1394.47,2663.67 1394.10,2660.61 1394.44,2659.81"/>
    </edge>
    <edge id=":10277780854_4" function="internal">
        <lane id=":10277780854_4_0" index="0" disallow="tram rail_urban rail rail_electric rail_fast ship container cable_car subway aircraft wheelchair scooter drone" speed="5.48" length="5.73" shape="1394.44,2659.81 1394.79,2658.99 1396.55,2658.80 1399.36,2660.04"/>
    </edge>
    <edge id=":10277780854_2" function="internal">
        <lane id=":10277780854_2_0" index="0" disallow="tram rail_urban rail rail_electric rail_fast ship container cable_car subway aircraft wheelchair scooter drone" speed="6.23" length="9.05" shape="1386.88,2656.87 1389.31,2656.20 1390.84,2654.91 1391.44,2653.01 1391.13,2650.50"/>
    </edge>
    <edge id=":10277780854_3" function="internal">
        <lane id=":10277780854_3_0" index="0" disallow="tram rail_urban rail rail_electric rail_fast ship container cable_car subway aircraft wheelchair scooter drone" speed="13.69" length="13.15" shape="1386.88,2656.87 1390.31,2656.75 1393.36,2657.27 1396.29,2658.39 1399.36,2660.04"/>
    </edge>
    <edge id=":10277780855_0" function="internal">
        <lane id=":10277780855_0_0" index="0" disallow="tram rail_urban rail rail_electric rail_fast ship container cable_car subway aircraft wheelchair scooter drone" speed="6.52" length="8.96" shape="1365.23,2654.11 1365.92,2656.45 1367.20,2658.02 1369.07,2658.82 1371.54,2658.85"/>
    </edge>
    <edge id=":10277780855_1" function="internal">
        <lane id=":10277780855_1_0" index="0" disallow="tram rail_urban rail rail_electric rail_fast ship container cable_car subway aircraft wheelchair scooter drone" speed="22.22" length="11.06" shape="1365.23,2654.11 1366.83,2665.06"/>
    </edge>
    <edge id=":10277780860_0" function="internal">
        <lane id=":10277780860_0_0" index="0" disallow="tram rail_urban rail rail_electric rail_fast ship container cable_car subway aircraft wheelchair scooter drone" speed="22.22" length="9.40" shape="1591.94,2745.11 1601.23,2746.50"/>
    </edge>
    <edge id=":10277780860_1" function="internal">
        <lane id=":10277780860_1_0" index="0" allow="pedestrian motorcycle moped bicycle" speed="6.07" length="7.78" shape="1591.94,2745.11 1594.64,2745.72 1596.50,2746.59 1597.52,2747.74 1597.69,2749.16"/>
    </edge>
    <edge id=":10277780860_2" function="internal">
        <lane id=":10277780860_2_0" index="0" allow="pedestrian motorcycle moped bicycle" speed="6.11" length="7.77" shape="1594.53,2748.65 1595.13,2747.36 1596.45,2746.58 1598.49,2746.29 1601.23,2746.50"/>
    </edge>
    <edge id=":10277780860_3" function="internal">
        <lane id=":10277780860_3_0" index="0" allow="pedestrian motorcycle moped bicycle" speed="3.65" length="4.67" shape="1594.53,2748.65 1595.51,2747.59 1596.36,2747.33 1597.09,2747.85 1597.69,2749.16"/>
    </edge>
    <edge id=":10277780861_0" function="internal">
        <lane id=":10277780861_0_0" index="0" allow="pedestrian delivery bicycle" speed="5.10" length="5.09" shape="1648.27,2750.25 1648.28,2751.65 1648.73,2752.72 1649.61,2753.45 1650.94,2753.85"/>
    </edge>
    <edge id=":10277780861_1" function="internal">
        <lane id=":10277780861_1_0" index="0" allow="pedestrian delivery bicycle" speed="5.56" length="6.29" shape="1648.27,2750.25 1647.44,2756.48"/>
    </edge>
    <edge id=":10277780861_2" function="internal">
        <lane id=":10277780861_2_0" index="0" allow="pedestrian delivery bicycle" speed="3.65" length="4.67" shape="1648.27,2750.25 1647.32,2751.34 1646.47,2751.63 1645.73,2751.12 1645.10,2749.83"/>
    </edge>
    <edge id=":10277780861_3" function="internal">
        <lane id=":10277780861_3_0" index="0" allow="pedestrian delivery bicycle" speed="5.03" length="5.02" shape="1641.60,2752.47 1642.97,2752.47 1644.02,2752.04 1644.73,2751.15 1645.10,2749.83"/>
    </edge>
    <edge id=":10277780861_4" function="internal">
        <lane id=":10277780861_4_0" index="0" disallow="tram rail_urban rail rail_electric rail_fast ship container cable_car subway aircraft wheelchair scooter drone" speed="22.22" length="9.44" shape="1641.60,2752.47 1650.94,2753.85"/>
    </edge>
    <edge id=":10277780861_5" function="internal">
        <lane id=":10277780861_5_0" index="0" allow="pedestrian delivery bicycle" speed="6.13" length="7.81" shape="1641.60,2752.47 1644.31,2753.06 1646.18,2753.93 1647.23,2755.07 1647.44,2756.48"/>
    </edge>
    <edge id=":10277780861_6" function="internal">
        <lane id=":10277780861_6_0" index="0" allow="pedestrian delivery bicycle" speed="5.56" length="6.28" shape="1644.27,2756.06 1645.10,2749.83"/>
    </edge>
    <edge id=":10277780861_7" function="internal">
        <lane id=":10277780861_7_0" index="0" allow="pedestrian delivery bicycle" speed="6.07" length="7.79" shape="1644.27,2756.06 1644.84,2754.74 1646.14,2753.94 1648.18,2753.64 1650.94,2753.85"/>
    </edge>
    <edge id=":10277780861_8" function="internal">
        <lane id=":10277780861_8_0" index="0" allow="pedestrian delivery bicycle" speed="3.65" length="4.67" shape="1644.27,2756.06 1645.22,2754.98 1646.06,2754.69 1646.80,2755.19 1647.44,2756.48"/>
    </edge>
    <edge id=":10277780864_0" function="internal">
        <lane id=":10277780864_0_0" index="0" allow="pedestrian delivery bicycle" speed="5.05" length="4.99" shape="1818.80,2776.57 1818.76,2777.93 1819.16,2778.99 1820.01,2779.73 1821.31,2780.16"/>
    </edge>
    <edge id=":10277780864_1" function="internal">
        <lane id=":10277780864_1_0" index="0" allow="pedestrian delivery bicycle" speed="5.56" length="6.54" shape="1818.80,2776.57 1817.46,2782.97"/>
    </edge>
    <edge id=":10277780864_2" function="internal">
        <lane id=":10277780864_2_0" index="0" allow="pedestrian delivery bicycle" speed="3.65" length="4.67" shape="1818.80,2776.57 1817.80,2777.61 1816.95,2777.87 1816.23,2777.34 1815.64,2776.02"/>
    </edge>
    <edge id=":10277780864_3" function="internal">
        <lane id=":10277780864_3_0" index="0" allow="pedestrian delivery bicycle" speed="5.11" length="5.12" shape="1811.92,2778.56 1813.35,2778.59 1814.45,2778.18 1815.21,2777.32 1815.64,2776.02"/>
    </edge>
    <edge id=":10277780864_4" function="internal">
        <lane id=":10277780864_4_0" index="0" disallow="tram rail_urban rail rail_electric rail_fast ship container cable_car subway aircraft wheelchair scooter drone" speed="22.22" length="9.52" shape="1811.92,2778.56 1821.31,2780.16"/>
    </edge>
    <edge id=":10277780864_5" function="internal">
        <lane id=":10277780864_5_0" index="0" allow="pedestrian delivery bicycle" speed="6.00" length="7.98" shape="1811.92,2778.56 1814.65,2779.22 1816.48,2780.17 1817.42,2781.42 1817.46,2782.97"/>
    </edge>
    <edge id=":10277780864_6" function="internal">
        <lane id=":10277780864_6_0" index="0" allow="pedestrian delivery bicycle" speed="5.56" length="6.32" shape="1814.35,2782.21 1815.64,2776.02"/>
    </edge>
    <edge id=":10277780864_7" function="internal">
        <lane id=":10277780864_7_0" index="0" allow="pedestrian delivery bicycle" speed="6.29" length="7.97" shape="1814.35,2782.21 1815.07,2780.90 1816.47,2780.12 1818.55,2779.87 1821.31,2780.16"/>
    </edge>
    <edge id=":10277780864_8" function="internal">
        <lane id=":10277780864_8_0" index="0" allow="pedestrian delivery bicycle" speed="3.65" length="4.67" shape="1814.35,2782.21 1815.41,2781.23 1816.28,2781.03 1816.96,2781.61 1817.46,2782.97"/>
    </edge>
    <edge id=":10277780865_0" function="internal">
        <lane id=":10277780865_0_0" index="0" allow="pedestrian delivery bicycle" speed="5.06" length="5.03" shape="1823.16,2769.44 1821.79,2769.41 1820.74,2769.84 1820.00,2770.71 1819.58,2772.03"/>
    </edge>
    <edge id=":10277780865_1" function="internal">
        <lane id=":10277780865_1_0" index="0" disallow="tram rail_urban rail rail_electric rail_fast ship container cable_car subway aircraft wheelchair scooter drone" speed="22.22" length="9.40" shape="1823.16,2769.44 1813.89,2767.91"/>
    </edge>
    <edge id=":10277780865_2" function="internal">
        <lane id=":10277780865_2_0" index="0" allow="pedestrian delivery bicycle" speed="5.03" length="5.01" shape="1816.43,2771.48 1816.47,2770.11 1816.06,2769.06 1815.20,2768.32 1813.89,2767.91"/>
    </edge>
    <edge id=":10277780865_3" function="internal">
        <lane id=":10277780865_3_0" index="0" allow="pedestrian delivery bicycle" speed="3.65" length="4.67" shape="1816.43,2771.48 1817.42,2770.44 1818.28,2770.18 1819.00,2770.71 1819.58,2772.03"/>
    </edge>
    <edge id=":10277780868_0" function="internal">
        <lane id=":10277780868_0_0" index="0" allow="pedestrian delivery bicycle" speed="5.03" length="5.01" shape="1747.95,2765.06 1747.91,2766.44 1748.32,2767.49 1749.19,2768.22 1750.50,2768.63"/>
    </edge>
    <edge id=":10277780868_1" function="internal">
        <lane id=":10277780868_1_0" index="0" allow="pedestrian delivery bicycle" speed="5.56" length="6.42" shape="1747.95,2765.06 1746.76,2771.37"/>
    </edge>
    <edge id=":10277780868_2" function="internal">
        <lane id=":10277780868_2_0" index="0" allow="pedestrian delivery bicycle" speed="3.65" length="4.67" shape="1747.95,2765.06 1746.96,2766.11 1746.10,2766.37 1745.38,2765.84 1744.80,2764.52"/>
    </edge>
    <edge id=":10277780868_3" function="internal">
        <lane id=":10277780868_3_0" index="0" allow="pedestrian delivery bicycle" speed="5.11" length="5.12" shape="1741.13,2767.12 1742.54,2767.15 1743.61,2766.72 1744.37,2765.84 1744.80,2764.52"/>
    </edge>
    <edge id=":10277780868_4" function="internal">
        <lane id=":10277780868_4_0" index="0" disallow="tram rail_urban rail rail_electric rail_fast ship container cable_car subway aircraft wheelchair scooter drone" speed="22.22" length="9.49" shape="1741.13,2767.12 1750.50,2768.63"/>
    </edge>
    <edge id=":10277780868_5" function="internal">
        <lane id=":10277780868_5_0" index="0" allow="pedestrian delivery bicycle" speed="6.04" length="7.87" shape="1741.13,2767.12 1743.84,2767.77 1745.68,2768.69 1746.66,2769.89 1746.76,2771.37"/>
    </edge>
    <edge id=":10277780868_6" function="internal">
        <lane id=":10277780868_6_0" index="0" allow="pedestrian delivery bicycle" speed="5.56" length="6.32" shape="1743.63,2770.73 1744.80,2764.52"/>
    </edge>
    <edge id=":10277780868_7" function="internal">
        <lane id=":10277780868_7_0" index="0" allow="pedestrian delivery bicycle" speed="6.22" length="7.90" shape="1743.63,2770.73 1744.29,2769.43 1745.66,2768.65 1747.73,2768.39 1750.50,2768.63"/>
    </edge>
    <edge id=":10277780868_8" function="internal">
        <lane id=":10277780868_8_0" index="0" allow="pedestrian delivery bicycle" speed="3.65" length="4.67" shape="1743.63,2770.73 1744.65,2769.71 1745.51,2769.48 1746.22,2770.03 1746.76,2771.37"/>
    </edge>
    <edge id=":10277780869_0" function="internal">
        <lane id=":10277780869_0_0" index="0" allow="pedestrian delivery bicycle" speed="5.03" length="5.01" shape="1752.42,2757.56 1751.04,2757.50 1749.99,2757.90 1749.25,2758.76 1748.82,2760.07"/>
    </edge>
    <edge id=":10277780869_1" function="internal">
        <lane id=":10277780869_1_0" index="0" disallow="tram rail_urban rail rail_electric rail_fast ship container cable_car subway aircraft wheelchair scooter drone" speed="22.22" length="9.43" shape="1752.42,2757.56 1743.12,2755.95"/>
    </edge>
    <edge id=":10277780869_2" function="internal">
        <lane id=":10277780869_2_0" index="0" allow="pedestrian delivery bicycle" speed="5.03" length="5.01" shape="1745.67,2759.52 1745.71,2758.14 1745.30,2757.09 1744.44,2756.36 1743.12,2755.95"/>
    </edge>
    <edge id=":10277780869_3" function="internal">
        <lane id=":10277780869_3_0" index="0" allow="pedestrian delivery bicycle" speed="3.65" length="4.67" shape="1745.67,2759.52 1746.66,2758.47 1747.52,2758.22 1748.24,2758.75 1748.82,2760.07"/>
    </edge>
    <edge id=":10281800056_0" function="internal">
        <lane id=":10281800056_0_0" index="0" disallow="tram rail_urban rail rail_electric rail_fast ship container cable_car subway aircraft wheelchair scooter drone" speed="22.22" length="12.98" shape="1248.42,2281.29 1243.42,2269.32"/>
    </edge>
    <edge id=":10281800056_1" function="internal">
        <lane id=":10281800056_1_0" index="0" disallow="tram rail_urban rail rail_electric rail_fast ship container cable_car subway aircraft wheelchair scooter drone" speed="12.77" length="12.52" shape="1248.42,2281.29 1247.25,2278.12 1246.66,2275.27 1246.70,2272.39 1247.44,2269.12"/>
    </edge>
    <edge id=":10281800056_2" function="internal">
        <lane id=":10281800056_2_0" index="0" disallow="tram rail_urban rail rail_electric rail_fast ship container cable_car subway aircraft wheelchair scooter drone" speed="5.96" length="12.38" shape="1250.50,2270.07 1248.98,2273.52 1247.29,2274.54 1245.44,2273.14 1243.42,2269.32"/>
    </edge>
    <edge id=":10281800056_3" function="internal">
        <lane id=":10281800056_3_0" index="0" disallow="tram rail_urban rail rail_electric rail_fast ship container cable_car subway aircraft wheelchair scooter drone" speed="3.65" length="4.67" shape="1250.50,2270.07 1249.38,2270.98 1248.50,2271.13 1247.85,2270.51 1247.44,2269.12"/>
    </edge>
    <edge id=":10610786637_0" function="internal">
        <lane id=":10610786637_0_0" index="0" disallow="tram rail_urban rail rail_electric rail_fast ship container cable_car subway aircraft wheelchair scooter drone" speed="22.22" length="5.00" shape="997.30,2384.10 992.32,2384.64"/>
    </edge>
    <edge id=":10610786637_1" function="internal">
        <lane id=":10610786637_1_0" index="0" disallow="tram rail_urban rail rail_electric rail_fast ship container cable_car subway aircraft wheelchair scooter drone" speed="22.22" length="5.00" shape="991.98,2381.46 996.95,2380.92"/>
    </edge>
    <edge id=":10736217357_0" function="internal">
        <lane id=":10736217357_0_0" index="0" allow="pedestrian delivery bicycle" speed="5.56" length="7.66" shape="678.57,2255.10 678.75,2253.72 679.58,2251.52 680.56,2249.32 681.18,2247.94"/>
    </edge>
    <edge id=":10736217357_1" function="internal">
        <lane id=":10736217357_1_0" index="0" allow="pedestrian delivery bicycle" speed="3.65" length="4.67" shape="678.57,2255.10 678.82,2253.68 679.39,2252.99 680.28,2253.03 681.50,2253.81"/>
    </edge>
    <edge id=":10736217357_2" function="internal">
        <lane id=":10736217357_2_0" index="0" allow="pedestrian delivery bicycle" speed="5.56" length="9.09" shape="674.23,2253.15 676.60,2252.49 678.55,2251.40 680.08,2249.89 681.18,2247.94"/>
    </edge>
    <edge id=":10736217357_3" function="internal">
        <lane id=":10736217357_3_0" index="0" allow="pedestrian delivery bicycle" speed="5.56" length="7.61" shape="674.23,2253.15 677.12,2252.77 679.29,2252.76 680.75,2253.10 681.50,2253.81"/>
    </edge>
    <edge id=":1084307350-AddedOffRampNode_0" function="internal">
        <lane id=":1084307350-AddedOffRampNode_0_0" index="0" allow="private emergency authority army vip passenger hov taxi bus coach delivery truck trailer motorcycle evehicle custom1 custom2" speed="22.22" length="8.40" shape="1330.17,2179.64 1327.71,2179.12 1325.86,2179.53 1324.02,2179.93 1321.56,2179.41"/>
        <lane id=":1084307350-AddedOffRampNode_0_1" index="1" allow="private emergency authority army vip passenger hov taxi bus coach delivery truck trailer motorcycle evehicle custom1 custom2" speed="22.22" length="8.40" shape="1330.17,2179.64 1322.82,2176.47"/>
    </edge>
    <edge id=":1084307352-AddedOnRampNode_0" function="internal">
        <lane id=":1084307352-AddedOnRampNode_0_0" index="0" allow="private emergency authority army vip passenger hov taxi bus coach delivery truck trailer motorcycle evehicle custom1 custom2" speed="39.44" length="8.00" shape="2078.85,2508.69 2086.66,2510.43"/>
        <lane id=":1084307352-AddedOnRampNode_0_1" index="1" allow="private emergency authority army vip passenger hov taxi bus coach delivery truck trailer motorcycle evehicle custom1 custom2" speed="39.44" length="8.00" shape="2078.16,2511.82 2085.97,2513.55"/>
    </edge>
    <edge id=":1084307358-AddedOffRampNode_0" function="internal">
        <lane id=":1084307358-AddedOffRampNode_0_0" index="0" allow="private emergency authority army vip passenger hov taxi bus coach delivery truck trailer motorcycle evehicle custom1 custom2" speed="22.22" length="8.40" shape="1839.66,2382.79 1837.20,2382.31 1835.36,2382.74 1833.51,2383.16 1831.05,2382.69"/>
        <lane id=":1084307358-AddedOffRampNode_0_1" index="1" allow="private emergency authority army vip passenger hov taxi bus coach delivery truck trailer motorcycle evehicle custom1 custom2" speed="22.22" length="8.40" shape="1839.66,2382.79 1832.27,2379.73"/>
    </edge>
    <edge id=":11025617364_0" function="internal">
        <lane id=":11025617364_0_0" index="0" allow="pedestrian delivery bicycle" speed="7.80" length="8.51" shape="563.72,2869.16 561.29,2867.33 559.23,2866.16 557.53,2865.65 556.21,2865.80"/>
    </edge>
    <edge id=":11025617364_1" function="internal">
        <lane id=":11025617364_1_0" index="0" allow="pedestrian delivery bicycle" speed="6.65" length="14.73" shape="563.72,2869.16 560.27,2865.64 559.36,2862.90 561.00,2860.92 565.18,2859.70"/>
    </edge>
    <edge id=":11025617364_2" function="internal">
        <lane id=":11025617364_2_0" index="0" allow="pedestrian delivery bicycle" speed="3.65" length="4.67" shape="563.72,2869.16 563.30,2867.78 563.50,2866.90 564.32,2866.54 565.75,2866.68"/>
    </edge>
    <edge id=":11025617364_3" function="internal">
        <lane id=":11025617364_3_0" index="0" allow="pedestrian delivery bicycle" speed="4.59" length="6.18" shape="566.45,2862.74 564.68,2863.25 563.97,2864.08 564.33,2865.22 565.75,2866.68"/>
    </edge>
    <edge id=":11025617364_4" function="internal">
        <lane id=":11025617364_4_0" index="0" disallow="tram rail_urban rail rail_electric rail_fast ship container cable_car subway aircraft wheelchair scooter drone" speed="13.89" length="10.74" shape="566.45,2862.74 563.41,2863.26 561.20,2863.82 559.06,2864.61 556.21,2865.80"/>
    </edge>
    <edge id=":11025617364_5" function="internal">
        <lane id=":11025617364_5_0" index="0" disallow="tram rail_urban rail rail_electric rail_fast ship container cable_car subway aircraft wheelchair scooter drone" speed="13.89" length="10.74" shape="554.96,2862.86 557.80,2861.65 559.94,2860.83 562.14,2860.24 565.18,2859.70"/>
    </edge>
    <edge id=":11025617364_6" function="internal">
        <lane id=":11025617364_6_0" index="0" allow="pedestrian delivery bicycle" speed="9.14" length="2.57" shape="554.96,2862.86 557.16,2862.45 557.48,2862.51"/>
    </edge>
    <edge id=":11025617364_7" function="internal">
        <lane id=":11025617364_7_0" index="0" allow="pedestrian delivery bicycle" speed="9.14" length="9.39" shape="557.48,2862.51 559.69,2862.95 562.55,2864.36 565.75,2866.68"/>
    </edge>
    <edge id=":11025617366_0" function="internal">