<?xml version="1.0" encoding="UTF-8"?>

<!-- generated on 2026-03-14 23:33:35 by Eclipse SUMO netgenerate Version 1.24.0
<netgenerateConfiguration xmlns:xsi="http://www.w3.org/2001/XMLSchema-instance" xsi:noNamespaceSchemaLocation="http://sumo.dlr.de/xsd/netgenerateConfiguration.xsd">

    <grid_network>
        <grid value="true"/>
        <grid.x-number value="5"/>
        <grid.y-number value="5"/>
        <grid.x-length value="40"/>
        <grid.y-length value="40"/>
    </grid_network>

    <output>
        <output-file value="hilly_road.net.xml"/>
    </output>

    <processing>
        <perturb-x value="15"/>
        <perturb-y value="15"/>
        <perturb-z value="5"/>
    </processing>

    <building_defaults>
        <default.lanewidth value="2.8"/>
        <default.speed value="11.1"/>
    </building_defaults>

    <junctions>
        <no-turnarounds value="true"/>
        <junctions.join value="true"/>
    </junctions>

</netgenerateConfiguration>
-->

<net version="1.20" junctionCornerDetail="5" limitTurnSpeed="5.50" xmlns:xsi="http://www.w3.org/2001/XMLSchema-instance" xsi:noNamespaceSchemaLocation="http://sumo.dlr.de/xsd/net_file.xsd">

    <location netOffset="21.46,18.23" convBoundary="0.00,0.00,193.83,198.01" origBoundary="-21.46,-18.23,172.37,179.77" projParameter="!"/>

    <edge id=":A0_0" function="internal">
        <lane id=":A0_0_0" index="0" speed="5.79" length="5.13" width="2.80" shape="29.18,11.01,0.16 29.27,9.66,0.18 29.71,8.53,0.19 30.51,7.61,0.20 31.66,6.91,0.21"/>
    </edge>
    <edge id=":A0_1" function="internal">
        <lane id=":A0_1_0" index="0" speed="3.71" length="1.72" width="2.80" shape="32.80,9.46,0.03 32.42,9.70,0.07 32.15,10.00,0.11 32.01,10.38,0.15 31.98,10.83,0.20"/>
    </edge>
    <edge id=":A1_0" function="internal">
        <lane id=":A1_0_0" index="0" speed="5.49" length="8.77" width="2.80" shape="38.90,70.19,-8.45 36.86,68.52,-8.45 35.14,68.21,-8.45 33.74,69.26,-8.45 32.65,71.66,-8.45"/>
    </edge>
    <edge id=":A1_1" function="internal">
        <lane id=":A1_1_0" index="0" speed="11.10" length="14.34" width="2.80" shape="38.90,70.19,-8.45 36.45,67.43,-8.45 34.36,64.53,-8.45 32.86,61.39,-8.45 32.15,57.87,-8.45"/>
    </edge>
    <edge id=":A1_2" function="internal">
        <lane id=":A1_2_0" index="0" speed="11.10" length="12.48" width="2.80" shape="34.94,57.69,-8.45 35.53,60.94,-8.45 36.78,63.49,-8.45 38.61,65.78,-8.45 40.94,68.27,-8.45"/>
    </edge>
    <edge id=":A1_3" function="internal">
        <lane id=":A1_3_0" index="0" speed="11.10" length="14.23" width="2.80" shape="34.94,57.69,-8.45 34.92,61.31,-8.45 34.45,64.75,-8.45 33.66,68.16,-8.45 32.65,71.66,-8.45"/>
    </edge>
    <edge id=":A1_4" function="internal">
        <lane id=":A1_4_0" index="0" speed="11.10" length="13.25" width="2.80" shape="29.97,70.85,-8.45 30.96,67.50,-8.45 31.72,64.44,-8.45 32.14,61.33,-8.45 32.15,57.87,-8.45"/>
    </edge>
    <edge id=":A1_5" function="internal">
        <lane id=":A1_5_0" index="0" speed="7.07" length="3.55" width="2.80" shape="29.97,70.85,-8.45 31.43,67.61,-8.45"/>
    </edge>
    <edge id=":A1_6" function="internal">
        <lane id=":A1_6_0" index="0" speed="7.07" length="11.83" width="2.80" shape="31.43,67.61,-8.45 31.87,66.64,-8.45 34.34,64.81,-8.45 37.36,65.35,-8.45 40.94,68.27,-8.45"/>
    </edge>
    <edge id=":A2_0" function="internal">
        <lane id=":A2_0_0" index="0" speed="6.36" length="8.63" width="2.80" shape="34.09,84.85,-3.11 31.79,84.32,-3.11 29.87,84.65,-3.11 28.31,85.84,-3.11 27.14,87.88,-3.11"/>
    </edge>
    <edge id=":A2_1" function="internal">
        <lane id=":A2_1_0" index="0" speed="7.87" length="13.04" width="2.80" shape="34.09,84.85,-3.11 30.96,83.12,-3.11 29.05,80.82,-3.11 28.36,77.93,-3.11 28.88,74.46,-3.11"/>
    </edge>
    <edge id=":A2_2" function="internal">
        <lane id=":A2_2_0" index="0" speed="6.55" length="8.77" width="2.80" shape="31.56,75.27,-3.11 31.21,77.59,-3.11 31.69,79.53,-3.11 32.98,81.08,-3.11 35.10,82.24,-3.11"/>
    </edge>
    <edge id=":A2_3" function="internal">
        <lane id=":A2_3_0" index="0" speed="11.10" length="13.37" width="2.80" shape="31.56,75.27,-3.11 30.52,78.61,-3.11 29.51,81.63,-3.11 28.41,84.63,-3.11 27.14,87.88,-3.11"/>
    </edge>
    <edge id=":A2_4" function="internal">
        <lane id=":A2_4_0" index="0" speed="11.10" length="13.12" width="2.80" shape="24.54,86.84,-3.11 25.80,83.62,-3.11 26.87,80.71,-3.11 27.85,77.77,-3.11 28.88,74.46,-3.11"/>
    </edge>
    <edge id=":A2_5" function="internal">
        <lane id=":A2_5_0" index="0" speed="7.71" length="3.41" width="2.80" shape="24.54,86.84,-3.11 26.24,83.89,-3.11"/>
    </edge>
    <edge id=":A2_6" function="internal">
        <lane id=":A2_6_0" index="0" speed="7.71" length="9.69" width="2.80" shape="26.24,83.89,-3.11 26.33,83.74,-3.11 28.68,81.94,-3.11 31.61,81.44,-3.11 35.10,82.24,-3.11"/>
    </edge>
    <edge id=":A3_0" function="internal">
        <lane id=":A3_0_0" index="0" speed="11.10" length="22.66" width="2.80" shape="2.22,157.93,1.31 0.96,154.33,1.31 0.98,149.49,1.31 2.26,143.39,1.31 4.82,136.05,1.31"/>
    </edge>
    <edge id=":A3_1" function="internal">
        <lane id=":A3_1_0" index="0" speed="10.48" length="3.87" width="2.80" shape="2.22,157.93,1.31 1.26,154.41,1.31 1.33,154.20,1.31"/>
    </edge>
    <edge id=":A3_6" function="internal">
        <lane id=":A3_6_0" index="0" speed="10.48" length="17.88" width="2.80" shape="1.33,154.20,1.31 2.43,150.19,1.31 5.71,145.26,1.31 11.12,139.63,1.31"/>
    </edge>
    <edge id=":A3_2" function="internal">
        <lane id=":A3_2_0" index="0" speed="9.55" length="17.93" width="2.80" shape="13.02,141.69,1.31 8.29,146.50,1.31 5.30,150.56,1.31 4.07,153.87,1.31 4.58,156.43,1.31"/>
    </edge>
    <edge id=":A3_3" function="internal">
        <lane id=":A3_3_0" index="0" speed="5.88" length="13.64" width="2.80" shape="13.02,141.69,1.31 9.74,143.11,1.31 6.63,142.20,1.31 4.66,139.62,1.31 4.82,136.05,1.31"/>
    </edge>
    <edge id=":A3_4" function="internal">
        <lane id=":A3_4_0" index="0" speed="5.39" length="11.16" width="2.80" shape="7.42,137.09,1.31 6.22,140.81,1.31 6.44,142.47,1.31 8.07,142.08,1.31 11.12,139.63,1.31"/>
    </edge>
    <edge id=":A3_5" function="internal">
        <lane id=":A3_5_0" index="0" speed="11.10" length="20.04" width="2.80" shape="7.42,137.09,1.31 5.05,143.77,1.31 3.78,149.22,1.31 3.63,153.44,1.31 4.58,156.43,1.31"/>
    </edge>
    <edge id=":A4_0" function="internal">
        <lane id=":A4_0_0" index="0" speed="5.98" length="4.01" width="2.80" shape="29.89,198.15,-0.69 28.87,197.98,-0.61 27.98,197.60,-0.54 27.21,197.01,-0.47 26.57,196.21,-0.39"/>
    </edge>
    <edge id=":A4_1" function="internal">
        <lane id=":A4_1_0" index="0" speed="3.81" length="1.35" width="2.80" shape="28.93,194.70,-0.39 29.14,194.97,-0.45 29.40,195.17,-0.50 29.70,195.29,-0.55 30.04,195.35,-0.61"/>
    </edge>
    <edge id=":B0_0" function="internal">
        <lane id=":B0_0_0" index="0" speed="5.74" length="9.08" width="2.80" shape="49.24,8.78,-2.93 48.84,6.03,-2.93 47.76,4.43,-2.93 45.99,3.97,-2.93 43.54,4.65,-2.93"/>
    </edge>
    <edge id=":B0_1" function="internal">
        <lane id=":B0_1_0" index="0" speed="7.08" length="15.28" width="2.80" shape="49.24,8.78,-2.93 49.77,4.23,-2.93 51.55,1.74,-2.93 54.59,1.29,-2.93 58.87,2.88,-2.93"/>
    </edge>
    <edge id=":B0_2" function="internal">
        <lane id=":B0_2_0" index="0" speed="5.51" length="8.76" width="2.80" shape="57.56,5.35,-2.93 55.10,4.44,-2.93 53.36,4.70,-2.93 52.34,6.13,-2.93 52.04,8.73,-2.93"/>
    </edge>
    <edge id=":B0_3" function="internal">
        <lane id=":B0_3_0" index="0" speed="11.10" length="14.55" width="2.80" shape="57.56,5.35,-2.93 54.01,3.88,-2.93 50.49,3.28,-2.93 47.00,3.53,-2.93 43.54,4.65,-2.93"/>
    </edge>
    <edge id=":B0_4" function="internal">
        <lane id=":B0_4_0" index="0" speed="11.10" length="17.10" width="2.80" shape="42.39,2.10,-2.93 46.48,0.77,-2.93 50.59,0.46,-2.93 54.72,1.17,-2.93 58.87,2.88,-2.93"/>
    </edge>
    <edge id=":B0_5" function="internal">
        <lane id=":B0_5_0" index="0" speed="7.24" length="5.11" width="2.80" shape="42.39,2.10,-2.93 46.54,0.92,-2.93 47.32,1.10,-2.93"/>
    </edge>
    <edge id=":B0_6" function="internal">
        <lane id=":B0_6_0" index="0" speed="7.24" length="10.00" width="2.80" shape="47.32,1.10,-2.93 49.53,1.63,-2.93 51.36,4.24,-2.93 52.04,8.73,-2.93"/>
    </edge>
    <edge id=":B1_0" function="internal">
        <lane id=":B1_0_0" index="0" speed="11.10" length="16.21" width="2.80" shape="53.95,86.40,-2.31 43.17,74.73,0.91"/>
    </edge>
    <edge id=":B1_1" function="internal">
        <lane id=":B1_1_0" index="0" speed="11.10" length="2.45" width="2.80" shape="53.95,86.40,-2.31 52.73,84.32,-1.83"/>
    </edge>
    <edge id=":B1_2" function="internal">
        <lane id=":B1_2_0" index="0" speed="6.60" length="2.24" width="2.80" shape="53.95,86.40,-2.31 52.89,84.51,-1.74"/>
    </edge>
    <edge id=":B1_12" function="internal">
        <lane id=":B1_12_0" index="0" speed="11.10" length="14.22" width="2.80" shape="52.73,84.32,-1.83 51.99,83.08,-1.55 50.92,79.04,-0.73 50.44,74.77,0.11 50.30,70.74,0.91"/>
    </edge>
    <edge id=":B1_13" function="internal">
        <lane id=":B1_13_0" index="0" speed="6.60" length="10.59" width="2.80" shape="52.89,84.51,-1.74 52.59,83.96,-1.58 53.03,81.77,-1.00 55.28,79.80,-0.23 59.33,78.08,0.91"/>
    </edge>
    <edge id=":B1_3" function="internal">
        <lane id=":B1_3_0" index="0" speed="4.98" length="7.29" width="2.80" shape="60.19,80.74,0.91 57.75,81.69,-0.38 56.24,82.64,-1.26 55.67,83.59,-1.80 56.05,84.54,-2.31"/>
    </edge>
    <edge id=":B1_4" function="internal">
        <lane id=":B1_4_0" index="0" speed="11.10" length="19.10" width="2.80" shape="60.19,80.74,0.91 55.86,81.43,0.91 51.58,80.65,0.91 47.35,78.42,0.91 43.17,74.73,0.91"/>
    </edge>
    <edge id=":B1_5" function="internal">
        <lane id=":B1_5_0" index="0" speed="7.94" length="17.27" width="2.80" shape="60.19,80.74,0.91 55.95,81.29,0.91 52.89,79.81,0.91 51.00,76.30,0.91 50.30,70.74,0.91"/>
    </edge>
    <edge id=":B1_6" function="internal">
        <lane id=":B1_6_0" index="0" speed="6.63" length="11.72" width="2.80" shape="53.10,70.70,0.91 53.55,74.66,0.91 54.74,77.22,0.91 56.66,78.35,0.91 59.33,78.08,0.91"/>
    </edge>
    <edge id=":B1_7" function="internal">
        <lane id=":B1_7_0" index="0" speed="11.10" length="14.82" width="2.80" shape="53.10,70.70,0.91 53.13,74.44,0.07 53.36,78.09,-0.74 54.20,81.50,-1.52 56.05,84.54,-2.31"/>
    </edge>
    <edge id=":B1_8" function="internal">
        <lane id=":B1_8_0" index="0" speed="7.09" length="18.09" width="2.80" shape="53.10,70.70,0.91 52.58,76.52,0.91 50.75,79.14,0.91 47.61,78.54,0.91 43.17,74.73,0.91"/>
    </edge>
    <edge id=":B1_9" function="internal">
        <lane id=":B1_9_0" index="0" speed="5.26" length="9.27" width="2.80" shape="45.21,72.81,0.91 47.49,74.77,0.91 49.09,75.07,0.91 50.03,73.73,0.91 50.30,70.74,0.91"/>
    </edge>
    <edge id=":B1_10" function="internal">
        <lane id=":B1_10_0" index="0" speed="10.23" length="15.92" width="2.80" shape="45.21,72.81,0.91 48.75,75.97,0.91 52.29,77.90,0.91 55.81,78.60,0.91 59.33,78.08,0.91"/>
    </edge>
    <edge id=":B1_11" function="internal">
        <lane id=":B1_11_0" index="0" speed="11.10" length="16.29" width="2.80" shape="45.21,72.81,0.91 56.05,84.54,-2.31"/>
    </edge>
    <edge id=":B2_0" function="internal">
        <lane id=":B2_0_0" index="0" speed="7.23" length="10.52" width="2.80" shape="66.90,99.85,-5.52 64.84,98.63,-5.52 62.59,98.46,-5.52 60.14,99.33,-5.52 57.50,101.25,-5.52"/>
    </edge>
    <edge id=":B2_1" function="internal">
        <lane id=":B2_1_0" index="0" speed="11.10" length="21.25" width="2.80" shape="66.90,99.85,-5.52 63.03,97.20,-5.52 57.81,94.47,-5.52 52.42,92.02,-5.52 48.03,90.22,-5.52"/>
    </edge>
    <edge id=":B2_2" function="internal">
        <lane id=":B2_2_0" index="0" speed="11.10" length="18.81" width="2.80" shape="66.90,99.85,-5.52 63.78,96.89,-4.77 60.32,93.34,-3.91 56.93,89.71,-3.05 54.05,86.51,-2.31"/>
    </edge>
    <edge id=":B2_3" function="internal">
        <lane id=":B2_3_0" index="0" speed="11.10" length="18.48" width="2.80" shape="56.14,84.65,-2.31 58.99,87.81,-3.06 62.30,91.36,-3.91 65.68,94.84,-4.77 68.76,97.76,-5.52"/>
    </edge>
    <edge id=":B2_4" function="internal">
        <lane id=":B2_4_0" index="0" speed="9.12" length="4.38" width="2.80" shape="56.14,84.65,-2.31 58.65,88.17,-3.04"/>
    </edge>
    <edge id=":B2_5" function="internal">
        <lane id=":B2_5_0" index="0" speed="5.87" length="1.45" width="2.80" shape="56.14,84.65,-2.31 56.60,85.99,-2.65"/>
    </edge>
    <edge id=":B2_12" function="internal">
        <lane id=":B2_12_0" index="0" speed="9.12" length="14.75" width="2.80" shape="58.65,88.17,-3.04 59.53,89.42,-3.30 60.89,93.78,-4.08 60.21,97.72,-4.76 57.50,101.25,-5.52"/>
    </edge>
    <edge id=":B2_13" function="internal">
        <lane id=":B2_13_0" index="0" speed="5.87" length="12.30" width="2.80" shape="56.60,85.99,-2.65 57.12,87.53,-3.04 55.36,89.71,-3.71 51.96,90.76,-4.57 48.03,90.22,-5.52"/>
    </edge>
    <edge id=":B2_6" function="internal">
        <lane id=":B2_6_0" index="0" speed="4.96" length="9.63" width="2.80" shape="49.04,87.61,-5.52 52.76,88.86,-4.13 54.83,89.09,-3.39 55.26,88.31,-3.07 54.05,86.51,-2.31"/>
    </edge>
    <edge id=":B2_7" function="internal">
        <lane id=":B2_7_0" index="0" speed="11.10" length="22.25" width="2.80" shape="49.04,87.61,-5.52 53.56,89.49,-5.52 59.25,92.11,-5.52 64.76,95.03,-5.52 68.76,97.76,-5.52"/>
    </edge>
    <edge id=":B2_8" function="internal">
        <lane id=":B2_8_0" index="0" speed="8.16" length="20.33" width="2.80" shape="49.04,87.61,-5.52 55.79,90.86,-5.52 59.45,94.22,-5.52 60.02,97.68,-5.52 57.50,101.25,-5.52"/>
    </edge>
    <edge id=":B2_9" function="internal">
        <lane id=":B2_9_0" index="0" speed="6.89" length="14.17" width="2.80" shape="55.64,99.16,-5.52 56.92,97.03,-5.52 56.09,94.83,-5.52 53.12,92.56,-5.52 48.03,90.22,-5.52"/>
    </edge>
    <edge id=":B2_10" function="internal">
        <lane id=":B2_10_0" index="0" speed="8.02" length="14.73" width="2.80" shape="55.64,99.16,-5.52 57.55,96.57,-4.80 57.93,93.60,-4.13 56.76,90.25,-3.34 54.05,86.51,-2.31"/>
    </edge>
    <edge id=":B2_11" function="internal">
        <lane id=":B2_11_0" index="0" speed="8.45" length="14.65" width="2.80" shape="55.64,99.16,-5.52 59.21,96.61,-5.52 62.59,95.54,-5.52 65.78,95.92,-5.52 68.76,97.76,-5.52"/>
    </edge>
    <edge id=":B3_0" function="internal">
        <lane id=":B3_0_0" index="0" speed="5.67" length="9.41" width="2.80" shape="36.17,128.93,-4.05 35.14,126.08,-4.08 33.74,124.66,-4.10 31.96,124.69,-4.12 29.80,126.15,-4.14"/>
    </edge>
    <edge id=":B3_1" function="internal">
        <lane id=":B3_1_0" index="0" speed="11.10" length="17.81" width="2.80" shape="36.17,128.93,-4.05 35.54,124.05,-4.08 36.06,119.70,-4.10 37.73,115.87,-4.12 40.56,112.58,-4.14"/>
    </edge>
    <edge id=":B3_2" function="internal">
        <lane id=":B3_2_0" index="0" speed="7.03" length="16.35" width="2.80" shape="36.17,128.93,-4.05 35.63,123.89,-4.08 36.87,121.05,-4.10 39.91,120.40,-4.11 44.74,121.94,-4.14"/>
    </edge>
    <edge id=":B3_3" function="internal">
        <lane id=":B3_3_0" index="0" speed="5.36" length="8.91" width="2.80" shape="43.56,124.48,-4.14 40.93,123.64,-4.11 39.28,123.99,-4.10 38.60,125.54,-4.08 38.89,128.29,-4.05"/>
    </edge>
    <edge id=":B3_4" function="internal">
        <lane id=":B3_4_0" index="0" speed="9.61" length="14.78" width="2.80" shape="43.56,124.48,-4.14 39.71,123.20,-4.14 36.13,123.05,-4.14 32.82,124.03,-4.14 29.80,126.15,-4.14"/>
    </edge>
    <edge id=":B3_5" function="internal">
        <lane id=":B3_5_0" index="0" speed="7.38" length="15.84" width="2.80" shape="43.56,124.48,-4.14 39.33,121.87,-4.14 37.42,119.02,-4.14 37.83,115.92,-4.14 40.56,112.58,-4.14"/>
    </edge>
    <edge id=":B3_6" function="internal">
        <lane id=":B3_6_0" index="0" speed="5.93" length="9.79" width="2.80" shape="42.42,114.67,-4.14 40.85,116.66,-4.14 40.71,118.53,-4.14 42.00,120.29,-4.14 44.74,121.94,-4.14"/>
    </edge>
    <edge id=":B3_7" function="internal">
        <lane id=":B3_7_0" index="0" speed="10.21" length="14.80" width="2.80" shape="42.42,114.67,-4.14 40.12,117.38,-4.12 38.76,120.55,-4.10 38.35,124.19,-4.08 38.89,128.29,-4.05"/>
    </edge>
    <edge id=":B3_8" function="internal">
        <lane id=":B3_8_0" index="0" speed="11.10" length="17.06" width="2.80" shape="42.42,114.67,-4.14 29.80,126.15,-4.14"/>
    </edge>
    <edge id=":B3_9" function="internal">
        <lane id=":B3_9_0" index="0" speed="11.10" length="17.11" width="2.80" shape="27.89,124.09,-4.14 40.56,112.58,-4.14"/>
    </edge>
    <edge id=":B3_10" function="internal">
        <lane id=":B3_10_0" index="0" speed="10.60" length="4.03" width="2.80" shape="27.89,124.09,-4.14 31.19,121.78,-4.14"/>
    </edge>
    <edge id=":B3_11" function="internal">
        <lane id=":B3_11_0" index="0" speed="7.21" length="3.77" width="2.80" shape="27.89,124.09,-4.14 31.00,121.95,-4.12"/>
    </edge>
    <edge id=":B3_12" function="internal">
        <lane id=":B3_12_0" index="0" speed="10.60" length="14.07" width="2.80" shape="31.19,121.78,-4.14 31.63,121.47,-4.14 35.68,120.24,-4.14 40.05,120.40,-4.14 44.74,121.94,-4.14"/>
    </edge>
    <edge id=":B3_13" function="internal">
        <lane id=":B3_13_0" index="0" speed="7.21" length="12.21" width="2.80" shape="31.00,121.95,-4.12 31.67,121.49,-4.11 34.76,121.33,-4.10 37.17,123.59,-4.08 38.89,128.29,-4.05"/>
    </edge>
    <edge id=":B4_0" function="internal">
        <lane id=":B4_0_0" index="0" speed="11.10" length="14.81" width="2.80" shape="60.72,197.85,-3.43 57.06,198.54,-3.43 53.40,198.94,-3.43 49.72,199.09,-3.43 45.99,199.00,-3.43"/>
    </edge>
    <edge id=":B4_1" function="internal">
        <lane id=":B4_1_0" index="0" speed="7.92" length="3.63" width="2.80" shape="60.72,197.85,-3.43 57.10,198.10,-3.45"/>
    </edge>
    <edge id=":B4_6" function="internal">
        <lane id=":B4_6_0" index="0" speed="7.92" length="10.35" width="2.80" shape="57.10,198.10,-3.45 54.22,197.01,-3.47 52.07,194.57,-3.48 50.66,190.80,-3.50"/>
    </edge>
    <edge id=":B4_2" function="internal">
        <lane id=":B4_2_0" index="0" speed="6.62" length="9.48" width="2.80" shape="53.39,190.16,-3.50 54.35,192.79,-3.48 55.79,194.49,-3.47 57.70,195.27,-3.45 60.09,195.12,-3.43"/>
    </edge>
    <edge id=":B4_3" function="internal">
        <lane id=":B4_3_0" index="0" speed="7.28" length="14.21" width="2.80" shape="53.39,190.16,-3.50 53.75,194.22,-3.48 52.63,197.04,-3.47 50.05,198.63,-3.45 45.99,199.00,-3.43"/>
    </edge>
    <edge id=":B4_4" function="internal">
        <lane id=":B4_4_0" index="0" speed="5.82" length="8.69" width="2.80" shape="46.14,196.20,-3.43 48.62,195.98,-3.45 50.20,195.01,-3.47 50.88,193.28,-3.48 50.66,190.80,-3.50"/>
    </edge>
    <edge id=":B4_5" function="internal">
        <lane id=":B4_5_0" index="0" speed="11.10" length="14.04" width="2.80" shape="46.14,196.20,-3.43 49.74,196.30,-3.43 53.16,196.18,-3.43 56.56,195.80,-3.43 60.09,195.12,-3.43"/>
    </edge>
    <edge id=":C2_0" function="internal">
        <lane id=":C2_0_0" index="0" speed="11.10" length="15.26" width="2.80" shape="107.78,123.03,5.07 104.21,124.42,5.08 100.75,126.20,5.09 97.69,128.46,5.10 95.29,131.32,5.11"/>
    </edge>
    <edge id=":C2_1" function="internal">
        <lane id=":C2_1_0" index="0" speed="11.10" length="18.12" width="2.80" shape="107.78,123.03,5.07 102.72,124.31,5.08 98.17,124.40,5.09 94.15,123.30,5.10 90.65,121.01,5.11"/>
    </edge>
    <edge id=":C2_2" function="internal">
        <lane id=":C2_2_0" index="0" speed="7.05" length="17.17" width="2.80" shape="107.78,123.03,5.07 102.47,124.23,5.08 99.47,123.30,5.09 98.77,120.24,5.10 100.38,115.04,5.11"/>
    </edge>
    <edge id=":C2_3" function="internal">
        <lane id=":C2_3_0" index="0" speed="5.29" length="9.07" width="2.80" shape="102.94,116.17,5.11 102.09,118.91,5.10 102.46,120.53,5.09 104.05,121.02,5.08 106.85,120.39,5.07"/>
    </edge>
    <edge id=":C2_4" function="internal">
        <lane id=":C2_4_0" index="0" speed="11.10" length="16.98" width="2.80" shape="102.94,116.17,5.11 101.27,119.87,5.11 99.35,123.87,5.11 97.32,127.80,5.11 95.29,131.32,5.11"/>
    </edge>
    <edge id=":C2_5" function="internal">
        <lane id=":C2_5_0" index="0" speed="7.69" length="5.12" width="2.80" shape="102.94,116.17,5.11 100.37,120.60,5.11"/>
    </edge>
    <edge id=":C2_12" function="internal">
        <lane id=":C2_12_0" index="0" speed="7.69" length="11.21" width="2.80" shape="100.37,120.60,5.11 100.30,120.72,5.11 97.37,123.05,5.11 94.16,123.14,5.11 90.65,121.01,5.11"/>
    </edge>
    <edge id=":C2_6" function="internal">
        <lane id=":C2_6_0" index="0" speed="6.34" length="10.71" width="2.80" shape="92.51,118.91,5.11 94.67,120.15,5.11 96.69,119.92,5.11 98.60,118.21,5.11 100.38,115.04,5.11"/>
    </edge>
    <edge id=":C2_7" function="internal">
        <lane id=":C2_7_0" index="0" speed="10.36" length="15.13" width="2.80" shape="92.51,118.91,5.11 95.38,120.76,5.10 98.72,121.62,5.09 102.54,121.49,5.08 106.85,120.39,5.07"/>
    </edge>
    <edge id=":C2_8" function="internal">
        <lane id=":C2_8_0" index="0" speed="8.46" length="13.98" width="2.80" shape="92.51,118.91,5.11 95.22,121.94,5.11 96.58,125.02,5.11 96.61,128.14,5.11 95.29,131.32,5.11"/>
    </edge>
    <edge id=":C2_9" function="internal">
        <lane id=":C2_9_0" index="0" speed="7.24" length="10.02" width="2.80" shape="92.91,129.85,5.11 93.79,127.64,5.11 93.71,125.44,5.11 92.66,123.22,5.11 90.65,121.01,5.11"/>
    </edge>
    <edge id=":C2_10" function="internal">
        <lane id=":C2_10_0" index="0" speed="11.10" length="16.59" width="2.80" shape="92.91,129.85,5.11 94.91,126.38,5.11 96.88,122.57,5.11 98.73,118.69,5.11 100.38,115.04,5.11"/>
    </edge>
    <edge id=":C2_11" function="internal">
        <lane id=":C2_11_0" index="0" speed="11.10" length="2.72" width="2.80" shape="92.91,129.85,5.11 94.69,127.79,5.11"/>
    </edge>
    <edge id=":C2_13" function="internal">
        <lane id=":C2_13_0" index="0" speed="11.10" length="14.37" width="2.80" shape="94.69,127.79,5.11 95.54,126.81,5.10 99.10,124.14,5.09 103.05,121.97,5.08 106.85,120.39,5.07"/>
    </edge>
    <edge id=":C3_0" function="internal">
        <lane id=":C3_0_0" index="0" speed="11.10" length="14.21" width="2.80" shape="90.45,150.82,-2.14 88.26,147.90,-2.14 85.89,145.33,-2.14 83.21,143.13,-2.14 80.08,141.35,-2.14"/>
    </edge>
    <edge id=":C3_1" function="internal">
        <lane id=":C3_1_0" index="0" speed="10.67" length="18.03" width="2.80" shape="90.45,150.82,-2.14 88.35,146.77,-2.14 87.65,142.59,-2.14 88.34,138.29,-2.14 90.42,133.87,-2.14"/>
    </edge>
    <edge id=":C3_2" function="internal">
        <lane id=":C3_2_0" index="0" speed="7.20" length="15.91" width="2.80" shape="90.45,150.82,-2.14 88.38,146.72,-2.14 88.62,143.64,-2.14 91.16,141.57,-2.14 96.00,140.51,-2.14"/>
    </edge>
    <edge id=":C3_3" function="internal">
        <lane id=":C3_3_0" index="0" speed="5.65" length="9.33" width="2.80" shape="96.26,143.29,-2.14 93.35,143.91,-2.14 91.79,145.11,-2.14 91.59,146.87,-2.14 92.74,149.21,-2.14"/>
    </edge>
    <edge id=":C3_4" function="internal">
        <lane id=":C3_4_0" index="0" speed="11.10" length="16.45" width="2.80" shape="96.26,143.29,-2.14 92.27,143.48,-2.14 88.01,143.28,-2.14 83.82,142.60,-2.14 80.08,141.35,-2.14"/>
    </edge>
    <edge id=":C3_5" function="internal">
        <lane id=":C3_5_0" index="0" speed="7.03" length="5.01" width="2.80" shape="96.26,143.29,-2.14 91.25,143.14,-2.14"/>
    </edge>
    <edge id=":C3_12" function="internal">
        <lane id=":C3_12_0" index="0" speed="7.03" length="11.21" width="2.80" shape="91.25,143.14,-2.14 88.61,141.51,-2.14 88.33,138.43,-2.14 90.42,133.87,-2.14"/>
    </edge>
    <edge id=":C3_6" function="internal">
        <lane id=":C3_6_0" index="0" speed="5.37" length="8.89" width="2.80" shape="92.80,135.34,-2.14 91.66,137.84,-2.14 91.81,139.53,-2.14 93.26,140.42,-2.14 96.00,140.51,-2.14"/>
    </edge>
    <edge id=":C3_7" function="internal">
        <lane id=":C3_7_0" index="0" speed="9.69" length="14.76" width="2.80" shape="92.80,135.34,-2.14 91.08,138.99,-2.14 90.50,142.51,-2.14 91.05,145.92,-2.14 92.74,149.21,-2.14"/>
    </edge>
    <edge id=":C3_8" function="internal">
        <lane id=":C3_8_0" index="0" speed="8.71" length="15.55" width="2.80" shape="92.80,135.34,-2.14 89.86,139.18,-2.14 86.76,141.46,-2.14 83.50,142.18,-2.14 80.08,141.35,-2.14"/>
    </edge>
    <edge id=":C3_9" function="internal">
        <lane id=":C3_9_0" index="0" speed="7.54" length="11.45" width="2.80" shape="81.25,138.80,-2.14 83.61,139.32,-2.14 85.92,138.67,-2.14 88.19,136.85,-2.14 90.42,133.87,-2.14"/>
    </edge>
    <edge id=":C3_10" function="internal">
        <lane id=":C3_10_0" index="0" speed="11.10" length="15.01" width="2.80" shape="81.25,138.80,-2.14 84.77,140.02,-2.14 88.46,140.61,-2.14 92.24,140.73,-2.14 96.00,140.51,-2.14"/>
    </edge>
    <edge id=":C3_11" function="internal">
        <lane id=":C3_11_0" index="0" speed="11.10" length="15.66" width="2.80" shape="81.25,138.80,-2.14 84.56,140.74,-2.14 87.63,143.26,-2.14 90.38,146.15,-2.14 92.74,149.21,-2.14"/>
    </edge>
    <edge id=":C4_0" function="internal">
        <lane id=":C4_0_0" index="0" speed="11.10" length="13.41" width="2.80" shape="120.85,185.05,2.17 117.36,185.30,2.17 114.19,185.73,2.17 111.04,186.33,2.17 107.62,187.09,2.17"/>
    </edge>
    <edge id=":C4_1" function="internal">
        <lane id=":C4_1_0" index="0" speed="10.35" length="2.83" width="2.80" shape="120.85,185.05,2.17 118.03,184.74,2.17"/>
    </edge>
    <edge id=":C4_6" function="internal">
        <lane id=":C4_6_0" index="0" speed="10.35" length="11.15" width="2.80" shape="118.03,184.74,2.17 117.77,184.71,2.17 114.84,183.43,2.17 112.06,181.20,2.17 109.44,178.02,2.17"/>
    </edge>
    <edge id=":C4_2" function="internal">
        <lane id=":C4_2_0" index="0" speed="9.29" length="11.17" width="2.80" shape="111.73,176.41,2.17 113.88,179.05,2.17 116.09,180.90,2.17 118.37,181.97,2.17 120.72,182.25,2.17"/>
    </edge>
    <edge id=":C4_3" function="internal">
        <lane id=":C4_3_0" index="0" speed="7.17" length="14.65" width="2.80" shape="111.73,176.41,2.17 113.67,180.22,2.17 113.63,183.27,2.17 111.61,185.56,2.17 107.62,187.09,2.17"/>
    </edge>
    <edge id=":C4_4" function="internal">
        <lane id=":C4_4_0" index="0" speed="5.67" length="8.70" width="2.80" shape="106.99,184.36,2.17 109.37,183.45,2.17 110.56,182.09,2.17 110.59,180.28,2.17 109.44,178.02,2.17"/>
    </edge>
    <edge id=":C4_5" function="internal">
        <lane id=":C4_5_0" index="0" speed="11.10" length="13.91" width="2.80" shape="106.99,184.36,2.17 110.49,183.59,2.17 113.81,182.97,2.17 117.15,182.52,2.17 120.72,182.25,2.17"/>
    </edge>
    <edge id=":D0_0" function="internal">
        <lane id=":D0_0_0" index="0" speed="11.10" length="32.12" width="2.80" shape="159.37,21.59,-4.97 156.05,21.90,-4.97 150.55,24.90,-4.97 142.88,30.61,-4.97 133.02,39.02,-4.97"/>
    </edge>
    <edge id=":D0_1" function="internal">
        <lane id=":D0_1_0" index="0" speed="11.10" length="30.60" width="2.80" shape="159.37,21.59,-4.97 155.88,21.47,-5.10 150.04,23.28,-5.33 141.85,27.02,-5.67 131.31,32.69,-6.11"/>
    </edge>
    <edge id=":D0_2" function="internal">
        <lane id=":D0_2_0" index="0" speed="11.10" length="33.18" width="2.80" shape="129.93,30.25,-6.11 141.10,24.31,-5.68 149.92,20.46,-5.35 156.41,18.71,-5.12 160.56,19.05,-4.97"/>
    </edge>
    <edge id=":D0_3" function="internal">
        <lane id=":D0_3_0" index="0" speed="5.52" length="1.40" width="2.80" shape="129.93,30.25,-6.11 131.32,30.16,-5.99"/>
    </edge>
    <edge id=":D0_6" function="internal">
        <lane id=":D0_6_0" index="0" speed="5.52" length="11.59" width="2.80" shape="131.32,30.16,-5.99 132.85,30.06,-5.86 134.61,32.39,-5.60 134.80,35.84,-5.29 133.02,39.02,-4.97"/>
    </edge>
    <edge id=":D0_4" function="internal">
        <lane id=":D0_4_0" index="0" speed="6.11" length="16.26" width="2.80" shape="131.16,36.93,-4.97 135.96,32.39,-5.44 137.59,30.17,-5.63 136.04,30.27,-5.74 131.31,32.69,-6.11"/>
    </edge>
    <edge id=":D0_5" function="internal">
        <lane id=":D0_5_0" index="0" speed="11.10" length="35.21" width="2.80" shape="131.16,36.93,-4.97 141.72,28.03,-4.97 150.14,22.09,-4.97 156.42,19.09,-4.97 160.56,19.05,-4.97"/>
    </edge>
    <edge id=":D1_0" function="internal">
        <lane id=":D1_0_0" index="0" speed="9.08" length="14.36" width="2.80" shape="122.67,41.42,-3.32 122.65,38.35,-3.93 123.83,35.47,-4.54 126.20,32.81,-5.25 129.77,30.34,-6.11"/>
    </edge>
    <edge id=":D1_1" function="internal">
        <lane id=":D1_1_0" index="0" speed="7.23" length="5.94" width="2.80" shape="122.67,41.42,-3.32 122.85,38.34,-4.12 124.83,36.56,-4.80"/>
    </edge>
    <edge id=":D1_2" function="internal">
        <lane id=":D1_2_0" index="0" speed="6.74" length="3.62" width="2.80" shape="122.67,41.42,-3.32 123.21,38.55,-3.93 123.75,38.86,-4.06"/>
    </edge>
    <edge id=":D1_12" function="internal">
        <lane id=":D1_12_0" index="0" speed="7.23" length="9.79" width="2.80" shape="124.83,36.56,-4.80 128.62,36.10,-5.79 134.21,36.95,-7.25"/>
    </edge>
    <edge id=":D1_13" function="internal">
        <lane id=":D1_13_0" index="0" speed="6.74" length="15.53" width="2.80" shape="123.75,38.86,-4.06 126.18,40.25,-4.65 130.26,44.62,-5.90 134.11,49.76,-7.25"/>
    </edge>
    <edge id=":D1_3" function="internal">
        <lane id=":D1_3_0" index="0" speed="5.47" length="11.74" width="2.80" shape="131.79,51.33,-7.25 129.25,48.04,-7.25 127.74,47.22,-7.25 127.25,48.87,-7.25 127.78,52.99,-7.25"/>
    </edge>